data/upstream/arpae-go/extracted/Challenge_1_Original_Dataset_2_Scenarios/Original_Dataset_Real-Time_Edition_2/Network_01R-020/scenario_10/case.raw
 0,    100, 33, 0, 0, 60.0 / Header line 1
Header line 2
Header line 3
     1,'',   138, 1, 1, 1, 1, 1.0169049, -92.271885, 1.1, 0.9, 1.1, 0.9
     2,'',   138, 1, 1, 1, 1, 1.0164844, -92.323752, 1.1, 0.9, 1.1, 0.9
     3,'',   138, 1, 1, 1, 1, 1.01372, -95.014391, 1.1, 0.9, 1.1, 0.9
     4,'',   138, 1, 1, 1, 1, 1.0121565, -95.194516, 1.1, 0.9, 1.1, 0.9
     5,'',   138, 1, 1, 1, 1, 1.0156886, -61.834919, 1.1, 0.9, 1.1, 0.9
     6,'',   138, 1, 1, 1, 1, 1.0156601, -61.83856, 1.1, 0.9, 1.1, 0.9
     7,'',   345, 1, 1, 1, 1, 1.0329355, -90.122603, 1.1, 0.9, 1.1, 0.9
     8,'',   138, 1, 1, 1, 1, 1.0270592, -91.662824, 1.1, 0.9, 1.1, 0.9
     9,'',  13.8, 2, 1, 1, 1, 1.04, -89.224763, 1.1, 0.9, 1.1, 0.9
    10,'',   138, 1, 1, 1, 1, 1.0253047, -88.164703, 1.1, 0.9, 1.1, 0.9
    11,'',   138, 1, 1, 1, 1, 1.0252855, -88.166855, 1.1, 0.9, 1.1, 0.9
    12,'',   138, 1, 1, 1, 1, 1.008749, -83.941376, 1.1, 0.9, 1.1, 0.9
    13,'',   138, 1, 1, 1, 1, 1.0084283, -83.97841, 1.1, 0.9, 1.1, 0.9
    14,'',   345, 1, 1, 1, 1, 1.0321346, -77.003533, 1.1, 0.9, 1.1, 0.9
    15,'',   138, 1, 1, 1, 1, 1.0271404, -78.603812, 1.1, 0.9, 1.1, 0.9
    16,'',  13.8, 2, 1, 1, 1, 1.0321346, -77.003533, 1.1, 0.9, 1.1, 0.9
    17,'',  13.8, 3, 1, 1, 1, 1.04, -73.600274, 1.1, 0.9, 1.1, 0.9
    18,'',  13.8, 2, 1, 1, 1, 1.04, -72.709929, 1.1, 0.9, 1.1, 0.9
    19,'',   138, 1, 1, 1, 1, 1.0214382, -93.942573, 1.1, 0.9, 1.1, 0.9
    20,'',   138, 1, 1, 1, 1, 1.0214012, -93.947499, 1.1, 0.9, 1.1, 0.9
    21,'',   138, 1, 1, 1, 1, 1.0147119, -91.58254, 1.1, 0.9, 1.1, 0.9
    22,'',   138, 1, 1, 1, 1, 1.0131725, -91.764879, 1.1, 0.9, 1.1, 0.9
    23,'',   345, 1, 1, 1, 1, 1.0315313, -80.031043, 1.1, 0.9, 1.1, 0.9
    24,'',   138, 1, 1, 1, 1, 1.0249442, -81.485793, 1.1, 0.9, 1.1, 0.9
    25,'',   138, 1, 1, 1, 1, 1.0249241, -81.488248, 1.1, 0.9, 1.1, 0.9
    26,'',   138, 1, 1, 1, 1, 1.0247567, -81.509868, 1.1, 0.9, 1.1, 0.9
    27,'',   138, 1, 1, 1, 1, 0.99612406, -85.316666, 1.1, 0.9, 1.1, 0.9
    28,'',   138, 1, 1, 1, 1, 0.99549583, -85.394892, 1.1, 0.9, 1.1, 0.9
    29,'',   138, 1, 1, 1, 1, 1.0092935, -94.683168, 1.1, 0.9, 1.1, 0.9
    30,'',   138, 1, 1, 1, 1, 1.0082093, -94.811815, 1.1, 0.9, 1.1, 0.9
    31,'',   138, 1, 1, 1, 1, 1.0204846, -96.310907, 1.1, 0.9, 1.1, 0.9
    32,'',   138, 1, 1, 1, 1, 1.0204069, -96.320157, 1.1, 0.9, 1.1, 0.9
    33,'',   138, 1, 1, 1, 1, 1.0167159, -92.067068, 1.1, 0.9, 1.1, 0.9
    34,'',   138, 1, 1, 1, 1, 1.0165212, -92.089867, 1.1, 0.9, 1.1, 0.9
    35,'',   138, 1, 1, 1, 1, 1.0227368, -95.943624, 1.1, 0.9, 1.1, 0.9
    36,'',   138, 1, 1, 1, 1, 1.0224253, -95.979658, 1.1, 0.9, 1.1, 0.9
    37,'',   138, 1, 1, 1, 1, 1.0040432, -71.482907, 1.1, 0.9, 1.1, 0.9
    38,'',   138, 1, 1, 1, 1, 1.004042, -71.483067, 1.1, 0.9, 1.1, 0.9
    39,'',   345, 1, 1, 1, 1, 1.0367033, -79.077039, 1.1, 0.9, 1.1, 0.9
    40,'',   138, 1, 1, 1, 1, 1.0328479, -79.794071, 1.1, 0.9, 1.1, 0.9
    41,'',   138, 1, 1, 1, 1, 1.032311, -79.86066, 1.1, 0.9, 1.1, 0.9
    42,'',   138, 1, 1, 1, 1, 1.0275581, -94.785309, 1.1, 0.9, 1.1, 0.9
    43,'',   138, 1, 1, 1, 1, 1.0275266, -94.789109, 1.1, 0.9, 1.1, 0.9
    44,'',   138, 1, 1, 1, 1, 1.020257, -90.495905, 1.1, 0.9, 1.1, 0.9
    45,'',   138, 1, 1, 1, 1, 1.0202328, -90.498926, 1.1, 0.9, 1.1, 0.9
    46,'',   138, 1, 1, 1, 1, 1.022391, -82.350063, 1.1, 0.9, 1.1, 0.9
    47,'',   138, 1, 1, 1, 1, 1.0220225, -82.394683, 1.1, 0.9, 1.1, 0.9
    48,'',   138, 1, 1, 1, 1, 0.99772807, -89.848412, 1.1, 0.9, 1.1, 0.9
    49,'',  13.8, 2, 1, 1, 1, 0.99959461, -89.645057, 1.1, 0.9, 1.1, 0.9
    50,'',  13.8, 2, 1, 1, 1, 0.9998846, -89.609143, 1.1, 0.9, 1.1, 0.9
    51,'',   138, 1, 1, 1, 1, 0.997725, -89.848788, 1.1, 0.9, 1.1, 0.9
    52,'',   138, 1, 1, 1, 1, 0.99754101, -89.870986, 1.1, 0.9, 1.1, 0.9
    53,'',   138, 1, 1, 1, 1, 1.0154701, -93.650902, 1.1, 0.9, 1.1, 0.9
    54,'',   138, 1, 1, 1, 1, 1.0150955, -93.691534, 1.1, 0.9, 1.1, 0.9
    55,'',   138, 1, 1, 1, 1, 1.0151069, -94.04549, 1.1, 0.9, 1.1, 0.9
    56,'',   138, 1, 1, 1, 1, 1.0150891, -94.047565, 1.1, 0.9, 1.1, 0.9
    57,'',   345, 1, 1, 1, 1, 1.0223532, -80.636234, 1.1, 0.9, 1.1, 0.9
    58,'',   138, 1, 1, 1, 1, 1.0150185, -82.294545, 1.1, 0.9, 1.1, 0.9
    59,'',   138, 1, 1, 1, 1, 1.013649, -82.466869, 1.1, 0.9, 1.1, 0.9
    60,'',   138, 1, 1, 1, 1, 1.0307271, -80.1445, 1.1, 0.9, 1.1, 0.9
    61,'',   138, 1, 1, 1, 1, 1.0307255, -80.144711, 1.1, 0.9, 1.1, 0.9
    62,'',   138, 1, 1, 1, 1, 1.0149277, -94.480458, 1.1, 0.9, 1.1, 0.9
    63,'',  13.8, 2, 1, 1, 1, 1.0175785, -94.389377, 1.1, 0.9, 1.1, 0.9
    64,'',   138, 1, 1, 1, 1, 1.0145439, -94.524167, 1.1, 0.9, 1.1, 0.9
    65,'',   345, 1, 1, 1, 1, 1.0135883, -93.866607, 1.1, 0.9, 1.1, 0.9
    66,'',   138, 1, 1, 1, 1, 1.0135883, -93.866607, 1.1, 0.9, 1.1, 0.9
    67,'',   138, 1, 1, 1, 1, 1.0135512, -93.870886, 1.1, 0.9, 1.1, 0.9
    68,'',   138, 1, 1, 1, 1, 1.0040264, -83.97365, 1.1, 0.9, 1.1, 0.9
    69,'',   138, 1, 1, 1, 1, 1.0038595, -83.994614, 1.1, 0.9, 1.1, 0.9
    70,'',   138, 1, 1, 1, 1, 1.0104414, -84.335576, 1.1, 0.9, 1.1, 0.9
    71,'',  13.8, 2, 1, 1, 1, 1.0111384, -84.296841, 1.1, 0.9, 1.1, 0.9
    72,'',  13.8, 2, 1, 1, 1, 1.0115659, -84.272709, 1.1, 0.9, 1.1, 0.9
    73,'',  13.8, 2, 1, 1, 1, 1.0119667, -84.254815, 1.1, 0.9, 1.1, 0.9
    74,'',   138, 1, 1, 1, 1, 1.0212732, -96.086851, 1.1, 0.9, 1.1, 0.9
    75,'',   138, 1, 1, 1, 1, 1.0212174, -96.093612, 1.1, 0.9, 1.1, 0.9
    76,'',   138, 1, 1, 1, 1, 1.0026632, -69.56371, 1.1, 0.9, 1.1, 0.9
    77,'',   138, 1, 1, 1, 1, 1.0025978, -69.571113, 1.1, 0.9, 1.1, 0.9
    78,'',   138, 1, 1, 1, 1, 1.0195549, -80.472974, 1.1, 0.9, 1.1, 0.9
    79,'',   138, 1, 1, 1, 1, 1.0195515, -80.473369, 1.1, 0.9, 1.1, 0.9
    80,'',   345, 1, 1, 1, 1, 1.0359467, -93.419653, 1.1, 0.9, 1.1, 0.9
    81,'',   138, 1, 1, 1, 1, 1.0292622, -94.402487, 1.1, 0.9, 1.1, 0.9
    82,'',  13.8, 2, 1, 1, 1, 1.04, -91.055075, 1.1, 0.9, 1.1, 0.9
    83,'',   138, 1, 1, 1, 1, 1.0168424, -90.893029, 1.1, 0.9, 1.1, 0.9
    84,'',   138, 1, 1, 1, 1, 1.0163277, -90.955647, 1.1, 0.9, 1.1, 0.9
    85,'',   138, 1, 1, 1, 1, 1.0220734, -95.445091, 1.1, 0.9, 1.1, 0.9
    86,'',   138, 1, 1, 1, 1, 1.0219195, -95.464072, 1.1, 0.9, 1.1, 0.9
    87,'',   138, 1, 1, 1, 1, 1.0089019, -62.883795, 1.1, 0.9, 1.1, 0.9
    88,'',   138, 1, 1, 1, 1, 1.0088529, -62.889805, 1.1, 0.9, 1.1, 0.9
    89,'',   138, 1, 1, 1, 1, 1.0197346, -93.328215, 1.1, 0.9, 1.1, 0.9
    90,'',   138, 1, 1, 1, 1, 1.0196677, -93.337027, 1.1, 0.9, 1.1, 0.9
    91,'',   138, 1, 1, 1, 1, 1.0223446, -79.5121, 1.1, 0.9, 1.1, 0.9
    92,'',   138, 1, 1, 1, 1, 1.0217527, -79.586799, 1.1, 0.9, 1.1, 0.9
    93,'',   138, 1, 1, 1, 1, 1.0057674, -80.320036, 1.1, 0.9, 1.1, 0.9
    94,'',   138, 1, 1, 1, 1, 1.005714, -80.326795, 1.1, 0.9, 1.1, 0.9
    95,'',   138, 1, 1, 1, 1, 1.023363, -79.454964, 1.1, 0.9, 1.1, 0.9
    96,'',   138, 1, 1, 1, 1, 1.0230755, -79.489867, 1.1, 0.9, 1.1, 0.9
    97,'',   138, 1, 1, 1, 1, 0.99317562, -88.174866, 1.1, 0.9, 1.1, 0.9
    98,'',   138, 1, 1, 1, 1, 0.99280674, -88.224819, 1.1, 0.9, 1.1, 0.9
    99,'',   138, 1, 1, 1, 1, 1.029192, -80.835356, 1.1, 0.9, 1.1, 0.9
   100,'',   138, 1, 1, 1, 1, 1.0290716, -80.849714, 1.1, 0.9, 1.1, 0.9
   101,'',   138, 1, 1, 1, 1, 1.0291842, -80.836208, 1.1, 0.9, 1.1, 0.9
   102,'',   138, 1, 1, 1, 1, 1.0028644, -92.408912, 1.1, 0.9, 1.1, 0.9
   103,'',   138, 1, 1, 1, 1, 1.0025277, -92.452208, 1.1, 0.9, 1.1, 0.9
   104,'',   138, 1, 1, 1, 1, 1.0181609, -96.583772, 1.1, 0.9, 1.1, 0.9
   105,'',   138, 1, 1, 1, 1, 1.0174628, -96.667521, 1.1, 0.9, 1.1, 0.9
   106,'',   138, 1, 1, 1, 1, 1.0241658, -94.95286, 1.1, 0.9, 1.1, 0.9
   107,'',   138, 1, 1, 1, 1, 1.0240478, -94.966947, 1.1, 0.9, 1.1, 0.9
   108,'',   138, 1, 1, 1, 1, 1.0264639, -81.12408, 1.1, 0.9, 1.1, 0.9
   109,'',   138, 1, 1, 1, 1, 1.0260781, -81.165834, 1.1, 0.9, 1.1, 0.9
   110,'',   138, 1, 1, 1, 1, 1.0175564, -64.325115, 1.1, 0.9, 1.1, 0.9
   111,'',   138, 1, 1, 1, 1, 1.0170273, -64.395143, 1.1, 0.9, 1.1, 0.9
   112,'',   138, 1, 1, 1, 1, 1.018959, -93.143223, 1.1, 0.9, 1.1, 0.9
   113,'',   138, 1, 1, 1, 1, 1.018607, -93.182715, 1.1, 0.9, 1.1, 0.9
   114,'',   138, 1, 1, 1, 1, 1.0223043, -96.073571, 1.1, 0.9, 1.1, 0.9
   115,'',   138, 1, 1, 1, 1, 1.0222677, -96.078294, 1.1, 0.9, 1.1, 0.9
   116,'',   138, 1, 1, 1, 1, 1.0222817, -96.076507, 1.1, 0.9, 1.1, 0.9
   117,'',   138, 1, 1, 1, 1, 1.0147745, -83.91161, 1.1, 0.9, 1.1, 0.9
   118,'',   138, 1, 1, 1, 1, 1.0146982, -83.921159, 1.1, 0.9, 1.1, 0.9
   119,'',   138, 1, 1, 1, 1, 1.0073202, -83.933919, 1.1, 0.9, 1.1, 0.9
   120,'',   138, 1, 1, 1, 1, 1.007063, -83.964938, 1.1, 0.9, 1.1, 0.9
   121,'',   138, 1, 1, 1, 1, 1.0125499, -94.492963, 1.1, 0.9, 1.1, 0.9
   122,'',   138, 1, 1, 1, 1, 1.0119411, -94.573438, 1.1, 0.9, 1.1, 0.9
   123,'',   345, 1, 1, 1, 1, 1.0370133, -76.817296, 1.1, 0.9, 1.1, 0.9
   124,'',   138, 1, 1, 1, 1, 1.0353253, -77.300582, 1.1, 0.9, 1.1, 0.9
   125,'',  13.8, 2, 1, 1, 1, 1.04, -75.436397, 1.1, 0.9, 1.1, 0.9
   126,'',  13.8, 2, 1, 1, 1, 1.04, -76.074041, 1.1, 0.9, 1.1, 0.9
   127,'',  13.8, 2, 1, 1, 1, 1.04, -75.18896, 1.1, 0.9, 1.1, 0.9
   128,'',  13.8, 2, 1, 1, 1, 1.04, -76.27995, 1.1, 0.9, 1.1, 0.9
   129,'',   138, 1, 1, 1, 1, 1.003998, -84.369548, 1.1, 0.9, 1.1, 0.9
   130,'',   138, 1, 1, 1, 1, 1.0030409, -84.475822, 1.1, 0.9, 1.1, 0.9
   131,'',   138, 1, 1, 1, 1, 1.0308453, -80.07701, 1.1, 0.9, 1.1, 0.9
   132,'',   138, 1, 1, 1, 1, 1.0306173, -80.103588, 1.1, 0.9, 1.1, 0.9
   133,'',   138, 1, 1, 1, 1, 1.0236172, -79.452119, 1.1, 0.9, 1.1, 0.9
   134,'',   138, 1, 1, 1, 1, 1.0232801, -79.493647, 1.1, 0.9, 1.1, 0.9
   135,'',   138, 1, 1, 1, 1, 1.0172436, -93.681785, 1.1, 0.9, 1.1, 0.9
   136,'',   138, 1, 1, 1, 1, 1.0169508, -93.719759, 1.1, 0.9, 1.1, 0.9
   137,'',   138, 1, 1, 1, 1, 1.0160109, -84.507717, 1.1, 0.9, 1.1, 0.9
   138,'',   138, 1, 1, 1, 1, 1.0153693, -84.591684, 1.1, 0.9, 1.1, 0.9
   139,'',   138, 1, 1, 1, 1, 1.028904, -80.489839, 1.1, 0.9, 1.1, 0.9
   140,'',   138, 1, 1, 1, 1, 1.028902, -80.490076, 1.1, 0.9, 1.1, 0.9
   141,'',   138, 1, 1, 1, 1, 1.0079741, -66.87487, 1.1, 0.9, 1.1, 0.9
   142,'',   138, 1, 1, 1, 1, 1.0064391, -67.050909, 1.1, 0.9, 1.1, 0.9
   143,'',   138, 1, 1, 1, 1, 1.024103, -56.793379, 1.1, 0.9, 1.1, 0.9
   144,'',  13.8, 2, 1, 1, 1, 1.04, -51.469278, 1.1, 0.9, 1.1, 0.9
   145,'',  13.8, 2, 1, 1, 1, 1.04, -51.357086, 1.1, 0.9, 1.1, 0.9
   146,'',   345, 1, 1, 1, 1, 1.0270261, -87.836906, 1.1, 0.9, 1.1, 0.9
   147,'',   138, 1, 1, 1, 1, 1.0104598, -86.090148, 1.1, 0.9, 1.1, 0.9
   148,'',   138, 1, 1, 1, 1, 1.0097777, -86.178955, 1.1, 0.9, 1.1, 0.9
   149,'',   138, 1, 1, 1, 1, 1.0249652, -94.663006, 1.1, 0.9, 1.1, 0.9
   150,'',   138, 1, 1, 1, 1, 1.0249523, -94.664525, 1.1, 0.9, 1.1, 0.9
   151,'',   345, 1, 1, 1, 1, 1.0367521, -79.294943, 1.1, 0.9, 1.1, 0.9
   152,'',   138, 1, 1, 1, 1, 1.035, -80.689566, 1.1, 0.9, 1.1, 0.9
   153,'',   138, 1, 1, 1, 1, 1.034302, -80.773881, 1.1, 0.9, 1.1, 0.9
   154,'',   138, 1, 1, 1, 1, 1.026012, -81.005818, 1.1, 0.9, 1.1, 0.9
   155,'',   138, 1, 1, 1, 1, 1.0255165, -81.06513, 1.1, 0.9, 1.1, 0.9
   156,'',   138, 1, 1, 1, 1, 1.0138184, -83.309744, 1.1, 0.9, 1.1, 0.9
   157,'',   138, 1, 1, 1, 1, 1.012853, -83.429695, 1.1, 0.9, 1.1, 0.9
   158,'',   138, 1, 1, 1, 1, 1.0128174, -93.85791, 1.1, 0.9, 1.1, 0.9
   159,'',   138, 1, 1, 1, 1, 1.0125483, -93.892476, 1.1, 0.9, 1.1, 0.9
   160,'',   138, 1, 1, 1, 1, 1.02537, -95.730929, 1.1, 0.9, 1.1, 0.9
   161,'',   138, 1, 1, 1, 1, 1.0251686, -95.756457, 1.1, 0.9, 1.1, 0.9
   162,'',   345, 1, 1, 1, 1, 1.0270944, -87.845694, 1.1, 0.9, 1.1, 0.9
   163,'',   138, 1, 1, 1, 1, 1.0246456, -88.619922, 1.1, 0.9, 1.1, 0.9
   164,'',   138, 1, 1, 1, 1, 1.023444, -88.76907, 1.1, 0.9, 1.1, 0.9
   165,'',   345, 1, 1, 1, 1, 1.0370463, -76.649818, 1.1, 0.9, 1.1, 0.9
   166,'',   138, 1, 1, 1, 1, 1.0339098, -77.604778, 1.1, 0.9, 1.1, 0.9
   167,'',  13.8, 2, 1, 1, 1, 1.04, -75.776951, 1.1, 0.9, 1.1, 0.9
   168,'',  13.8, 2, 1, 1, 1, 1.04, -75.209608, 1.1, 0.9, 1.1, 0.9
   169,'',  13.8, 2, 1, 1, 1, 1.04, -74.573835, 1.1, 0.9, 1.1, 0.9
   170,'',   138, 1, 1, 1, 1, 1.0231953, -79.540995, 1.1, 0.9, 1.1, 0.9
   171,'',   138, 1, 1, 1, 1, 1.0230842, -79.555887, 1.1, 0.9, 1.1, 0.9
   172,'',   138, 1, 1, 1, 1, 1.0156512, -83.291828, 1.1, 0.9, 1.1, 0.9
   173,'',   138, 1, 1, 1, 1, 1.0156266, -83.294542, 1.1, 0.9, 1.1, 0.9
   174,'',   138, 1, 1, 1, 1, 1.0155982, -83.298001, 1.1, 0.9, 1.1, 0.9
   175,'',   345, 1, 1, 1, 1, 1.0299364, -79.222697, 1.1, 0.9, 1.1, 0.9
   176,'',   138, 1, 1, 1, 1, 1.0102222, -75.409343, 1.1, 0.9, 1.1, 0.9
   177,'',   138, 1, 1, 1, 1, 1.0101427, -75.419653, 1.1, 0.9, 1.1, 0.9
   178,'',   138, 1, 1, 1, 1, 1.0101607, -75.416137, 1.1, 0.9, 1.1, 0.9
   179,'',   138, 1, 1, 1, 1, 1.0078725, -95.00353, 1.1, 0.9, 1.1, 0.9
   180,'',   138, 1, 1, 1, 1, 1.0077114, -95.021657, 1.1, 0.9, 1.1, 0.9
   181,'',   138, 1, 1, 1, 1, 0.991508, -87.693351, 1.1, 0.9, 1.1, 0.9
   182,'',   138, 1, 1, 1, 1, 0.99068892, -87.796668, 1.1, 0.9, 1.1, 0.9
   183,'',   138, 1, 1, 1, 1, 1.0130419, -66.458955, 1.1, 0.9, 1.1, 0.9
   184,'',   138, 1, 1, 1, 1, 1.0128025, -66.487788, 1.1, 0.9, 1.1, 0.9
   185,'',   138, 1, 1, 1, 1, 1.0154706, -80.643133, 1.1, 0.9, 1.1, 0.9
   186,'',   138, 1, 1, 1, 1, 1.0150979, -80.687558, 1.1, 0.9, 1.1, 0.9
   187,'',   138, 1, 1, 1, 1, 1.0189352, -93.450635, 1.1, 0.9, 1.1, 0.9
   188,'',   138, 1, 1, 1, 1, 1.0188159, -93.463825, 1.1, 0.9, 1.1, 0.9
   189,'',   138, 1, 1, 1, 1, 1.0206311, -96.309008, 1.1, 0.9, 1.1, 0.9
   190,'',   138, 1, 1, 1, 1, 1.0205225, -96.320552, 1.1, 0.9, 1.1, 0.9
   191,'',   138, 1, 1, 1, 1, 1.0228192, -95.74637, 1.1, 0.9, 1.1, 0.9
   192,'',   138, 1, 1, 1, 1, 1.022676, -95.763389, 1.1, 0.9, 1.1, 0.9
   193,'',   138, 1, 1, 1, 1, 1.0197642, -93.692176, 1.1, 0.9, 1.1, 0.9
   194,'',   138, 1, 1, 1, 1, 1.0195101, -93.722358, 1.1, 0.9, 1.1, 0.9
   195,'',   345, 1, 1, 1, 1, 1.0277812, -87.964098, 1.1, 0.9, 1.1, 0.9
   196,'',   138, 1, 1, 1, 1, 1.0216544, -89.757143, 1.1, 0.9, 1.1, 0.9
   197,'',  13.8, 2, 1, 1, 1, 1.04, -83.552925, 1.1, 0.9, 1.1, 0.9
   198,'',  13.8, 2, 1, 1, 1, 1.04, -85.547613, 1.1, 0.9, 1.1, 0.9
   199,'',   138, 1, 1, 1, 1, 1.0206795, -89.865399, 1.1, 0.9, 1.1, 0.9
   200,'',   138, 1, 1, 1, 1, 1.0216706, -89.800005, 1.1, 0.9, 1.1, 0.9
...
0 / END OF BUS DATA, BEGIN LOAD DATA
2, '1', 1, 1, 1, 31.211, 8.323, 0, 0, 0, 0, 1, 1, 0
4, '1', 1, 1, 1, 96.756, 25.802, 0, 0, 0, 0, 1, 1, 0
6, '1', 1, 1, 1, 1.92, 0.512, 0, 0, 0, 0, 1, 1, 0
11, '1', 1, 1, 1, 1.305, 0.348, 0, 0, 0, 0, 1, 1, 0
13, '1', 1, 1, 1, 22.154, 5.908, 0, 0, 0, 0, 1, 1, 0
20, '1', 1, 1, 1, 2.397, 0.639, 0, 0, 0, 0, 1, 1, 0
22, '1', 1, 1, 1, 108.431, 28.915, 0, 0, 0, 0, 1, 1, 0
25, '1', 1, 1, 1, 1.299, 0.347, 0, 0, 0, 0, 1, 1, 0
26, '1', 1, 1, 1, 12.33, 3.288, 0, 0, 0, 0, 1, 1, 0
28, '1', 1, 1, 1, 35.818, 9.551, 0, 0, 0, 0, 1, 1, 0
30, '1', 1, 1, 1, 72.9, 19.44, 0, 0, 0, 0, 1, 1, 0
32, '1', 1, 1, 1, 5.153, 1.374, 0, 0, 0, 0, 1, 1, 0
34, '1', 1, 1, 1, 13.193, 3.518, 0, 0, 0, 0, 1, 1, 0
36, '1', 1, 1, 1, 22.878, 6.101, 0, 0, 0, 0, 1, 1, 0
38, '1', 1, 1, 1, 0.077, 0.021, 0, 0, 0, 0, 1, 1, 0
41, '1', 1, 1, 1, 33.006, 8.802, 0, 0, 0, 0, 1, 1, 0
43, '1', 1, 1, 1, 2.354, 0.628, 0, 0, 0, 0, 1, 1, 0
45, '1', 1, 1, 1, 1.481, 0.395, 0, 0, 0, 0, 1, 1, 0
47, '1', 1, 1, 1, 24.707, 6.589, 0, 0, 0, 0, 1, 1, 0
51, '1', 1, 1, 1, 0.187, 0.05, 0, 0, 0, 0, 1, 1, 0
52, '1', 1, 1, 1, 12.343, 3.291, 0, 0, 0, 0, 1, 1, 0
54, '1', 1, 1, 1, 25.383, 6.769, 0, 0, 0, 0, 1, 1, 0
56, '1', 1, 1, 1, 1.189, 0.317, 0, 0, 0, 0, 1, 1, 0
59, '1', 1, 1, 1, 84.02, 22.405, 0, 0, 0, 0, 1, 1, 0
61, '1', 1, 1, 1, 0.116, 0.031, 0, 0, 0, 0, 1, 1, 0
64, '1', 1, 1, 1, 25.359, 6.762, 0, 0, 0, 0, 1, 1, 0
67, '1', 1, 1, 1, 2.411, 0.643, 0, 0, 0, 0, 1, 1, 0
69, '1', 1, 1, 1, 9.654, 2.574, 0, 0, 0, 0, 1, 1, 0
75, '1', 1, 1, 1, 3.866, 1.031, 0, 0, 0, 0, 1, 1, 0
77, '1', 1, 1, 1, 4.153, 1.107, 0, 0, 0, 0, 1, 1, 0
79, '1', 1, 1, 1, 0.23, 0.061, 0, 0, 0, 0, 1, 1, 0
84, '1', 1, 1, 1, 32.407, 8.642, 0, 0, 0, 0, 1, 1, 0
86, '1', 1, 1, 1, 9.284, 2.476, 0, 0, 0, 0, 1, 1, 0
88, '1', 1, 1, 1, 3.138, 0.837, 0, 0, 0, 0, 1, 1, 0
90, '1', 1, 1, 1, 4.303, 1.147, 0, 0, 0, 0, 1, 1, 0
92, '1', 1, 1, 1, 39.306, 10.482, 0, 0, 0, 0, 1, 1, 0
94, '1', 1, 1, 1, 3.802, 1.014, 0, 0, 0, 0, 1, 1, 0
96, '1', 1, 1, 1, 20.551, 5.48, 0, 0, 0, 0, 1, 1, 0
98, '1', 1, 1, 1, 22.42, 5.979, 0, 0, 0, 0, 1, 1, 0
100, '1', 1, 1, 1, 7.696, 2.052, 0, 0, 0, 0, 1, 1, 0
101, '1', 1, 1, 1, 0.507, 0.135, 0, 0, 0, 0, 1, 1, 0
103, '1', 1, 1, 1, 20.477, 5.461, 0, 0, 0, 0, 1, 1, 0
105, '1', 1, 1, 1, 42.396, 11.305, 0, 0, 0, 0, 1, 1, 0
107, '1', 1, 1, 1, 8.446, 2.252, 0, 0, 0, 0, 1, 1, 0
109, '1', 1, 1, 1, 27.082, 7.222, 0, 0, 0, 0, 1, 1, 0
111, '1', 1, 1, 1, 35.452, 9.454, 0, 0, 0, 0, 1, 1, 0
113, '1', 1, 1, 1, 24.271, 6.472, 0, 0, 0, 0, 1, 1, 0
115, '1', 1, 1, 1, 2.671, 0.712, 0, 0, 0, 0, 1, 1, 0
116, '1', 1, 1, 1, 1.635, 0.436, 0, 0, 0, 0, 1, 1, 0
118, '1', 1, 1, 1, 4.661, 1.243, 0, 0, 0, 0, 1, 1, 0
120, '1', 1, 1, 1, 18.868, 5.032, 0, 0, 0, 0, 1, 1, 0
122, '1', 1, 1, 1, 38.913, 10.377, 0, 0, 0, 0, 1, 1, 0
130, '1', 1, 1, 1, 61.548, 16.413, 0, 0, 0, 0, 1, 1, 0
132, '1', 1, 1, 1, 14.344, 3.825, 0, 0, 0, 0, 1, 1, 0
134, '1', 1, 1, 1, 25.776, 6.874, 0, 0, 0, 0, 1, 1, 0
136, '1', 1, 1, 1, 19.511, 5.203, 0, 0, 0, 0, 1, 1, 0
138, '1', 1, 1, 1, 41.536, 11.076, 0, 0, 0, 0, 1, 1, 0
140, '1', 1, 1, 1, 0.145, 0.039, 0, 0, 0, 0, 1, 1, 0
142, '1', 1, 1, 1, 96.391, 25.704, 0, 0, 0, 0, 1, 1, 0
148, '1', 1, 1, 1, 41.871, 11.166, 0, 0, 0, 0, 1, 1, 0
150, '1', 1, 1, 1, 0.793, 0.212, 0, 0, 0, 0, 1, 1, 0
153, '1', 1, 1, 1, 53.019, 14.138, 0, 0, 0, 0, 1, 1, 0
155, '1', 1, 1, 1, 38.044, 10.145, 0, 0, 0, 0, 1, 1, 0
157, '1', 1, 1, 1, 62.866, 16.764, 0, 0, 0, 0, 1, 1, 0
159, '1', 1, 1, 1, 16.663, 4.443, 0, 0, 0, 0, 1, 1, 0
161, '1', 1, 1, 1, 13.696, 3.652, 0, 0, 0, 0, 1, 1, 0
164, '1', 1, 1, 1, 71.572, 19.086, 0, 0, 0, 0, 1, 1, 0
171, '1', 1, 1, 1, 7.48, 1.995, 0, 0, 0, 0, 1, 1, 0
173, '1', 1, 1, 1, 1.654, 0.441, 0, 0, 0, 0, 1, 1, 0
174, '1', 1, 1, 1, 3.855, 1.028, 0, 0, 0, 0, 1, 1, 0
177, '1', 1, 1, 1, 5.246, 1.399, 0, 0, 0, 0, 1, 1, 0
178, '1', 1, 1, 1, 4.07, 1.085, 0, 0, 0, 0, 1, 1, 0
180, '1', 1, 1, 1, 10.308, 2.749, 0, 0, 0, 0, 1, 1, 0
182, '1', 1, 1, 1, 49.936, 13.316, 0, 0, 0, 0, 1, 1, 0
184, '1', 1, 1, 1, 18.029, 4.808, 0, 0, 0, 0, 1, 1, 0
186, '1', 1, 1, 1, 27.41, 7.309, 0, 0, 0, 0, 1, 1, 0
188, '1', 1, 1, 1, 8.057, 2.149, 0, 0, 0, 0, 1, 1, 0
190, '1', 1, 1, 1, 7.425, 1.98, 0, 0, 0, 0, 1, 1, 0
192, '1', 1, 1, 1, 8.676, 2.314, 0, 0, 0, 0, 1, 1, 0
194, '1', 1, 1, 1, 15.143, 4.038, 0, 0, 0, 0, 1, 1, 0
199, '1', 1, 1, 1, 62.999, 16.8, 0, 0, 0, 0, 1, 1, 0
201, '1', 1, 1, 1, 6.482, 1.729, 0, 0, 0, 0, 1, 1, 0
203, '1', 1, 1, 1, 2.475, 0.66, 0, 0, 0, 0, 1, 1, 0
204, '1', 1, 1, 1, 24.1, 6.427, 0, 0, 0, 0, 1, 1, 0
206, '1', 1, 1, 1, 1.588, 0.423, 0, 0, 0, 0, 1, 1, 0
207, '1', 1, 1, 1, 11.912, 3.177, 0, 0, 0, 0, 1, 1, 0
209, '1', 1, 1, 1, 48.798, 13.013, 0, 0, 0, 0, 1, 1, 0
211, '1', 1, 1, 1, 19.51, 5.203, 0, 0, 0, 0, 1, 1, 0
213, '1', 1, 1, 1, 51.445, 13.719, 0, 0, 0, 0, 1, 1, 0
215, '1', 1, 1, 1, 44.582, 11.888, 0, 0, 0, 0, 1, 1, 0
217, '1', 1, 1, 1, 32.849, 8.76, 0, 0, 0, 0, 1, 1, 0
219, '1', 1, 1, 1, 0.176, 0.047, 0, 0, 0, 0, 1, 1, 0
227, '1', 1, 1, 1, 3.279, 0.874, 0, 0, 0, 0, 1, 1, 0
229, '1', 1, 1, 1, 32.694, 8.719, 0, 0, 0, 0, 1, 1, 0
234, '1', 1, 1, 1, 43.726, 11.66, 0, 0, 0, 0, 1, 1, 0
237, '1', 1, 1, 1, 1.431, 0.382, 0, 0, 0, 0, 1, 1, 0
239, '1', 1, 1, 1, 22.272, 5.939, 0, 0, 0, 0, 1, 1, 0
241, '1', 1, 1, 1, 10.418, 2.778, 0, 0, 0, 0, 1, 1, 0
243, '1', 1, 1, 1, 54.301, 14.48, 0, 0, 0, 0, 1, 1, 0
245, '1', 1, 1, 1, 6.246, 1.666, 0, 0, 0, 0, 1, 1, 0
252, '1', 1, 1, 1, 70.753, 18.867, 0, 0, 0, 0, 1, 1, 0
259, '1', 1, 1, 1, 4.865, 1.297, 0, 0, 0, 0, 1, 1, 0
261, '1', 1, 1, 1, 11.293, 3.012, 0, 0, 0, 0, 1, 1, 0
266, '1', 1, 1, 1, 45.052, 12.014, 0, 0, 0, 0, 1, 1, 0
268, '1', 1, 1, 1, 61.823, 16.486, 0, 0, 0, 0, 1, 1, 0
270, '1', 1, 1, 1, 3.589, 0.957, 0, 0, 0, 0, 1, 1, 0
273, '1', 1, 1, 1, 5.009, 1.336, 0, 0, 0, 0, 1, 1, 0
277, '1', 1, 1, 1, 0.295, 0.079, 0, 0, 0, 0, 1, 1, 0
278, '1', 1, 1, 1, 4.207, 1.122, 0, 0, 0, 0, 1, 1, 0
280, '1', 1, 1, 1, 10.101, 2.694, 0, 0, 0, 0, 1, 1, 0
282, '1', 1, 1, 1, 70.903, 18.907, 0, 0, 0, 0, 1, 1, 0
284, '1', 1, 1, 1, 17.23, 4.595, 0, 0, 0, 0, 1, 1, 0
286, '1', 1, 1, 1, 4.998, 1.333, 0, 0, 0, 0, 1, 1, 0
288, '1', 1, 1, 1, 42.372, 11.299, 0, 0, 0, 0, 1, 1, 0
290, '1', 1, 1, 1, 2.23, 0.595, 0, 0, 0, 0, 1, 1, 0
292, '1', 1, 1, 1, 5.554, 1.481, 0, 0, 0, 0, 1, 1, 0
294, '1', 1, 1, 1, 13.513, 3.603, 0, 0, 0, 0, 1, 1, 0
296, '1', 1, 1, 1, 4.433, 1.182, 0, 0, 0, 0, 1, 1, 0
299, '1', 1, 1, 1, 7.688, 2.05, 0, 0, 0, 0, 1, 1, 0
303, '1', 1, 1, 1, 51.831, 13.822, 0, 0, 0, 0, 1, 1, 0
307, '1', 1, 1, 1, 45.334, 12.089, 0, 0, 0, 0, 1, 1, 0
309, '1', 1, 1, 1, 4.766, 1.271, 0, 0, 0, 0, 1, 1, 0
311, '1', 1, 1, 1, 26.493, 7.065, 0, 0, 0, 0, 1, 1, 0
313, '1', 1, 1, 1, 6.564, 1.75, 0, 0, 0, 0, 1, 1, 0
315, '1', 1, 1, 1, 0.242, 0.065, 0, 0, 0, 0, 1, 1, 0
317, '1', 1, 1, 1, 2.242, 0.598, 0, 0, 0, 0, 1, 1, 0
321, '1', 1, 1, 1, 109.689, 29.25, 0, 0, 0, 0, 1, 1, 0
323, '1', 1, 1, 1, 26.988, 7.197, 0, 0, 0, 0, 1, 1, 0
325, '1', 1, 1, 1, 61.679, 16.448, 0, 0, 0, 0, 1, 1, 0
327, '1', 1, 1, 1, 88.283, 23.542, 0, 0, 0, 0, 1, 1, 0
329, '1', 1, 1, 1, 15.727, 4.194, 0, 0, 0, 0, 1, 1, 0
331, '1', 1, 1, 1, 32.541, 8.678, 0, 0, 0, 0, 1, 1, 0
334, '1', 1, 1, 1, 0.285, 0.076, 0, 0, 0, 0, 1, 1, 0
335, '1', 1, 1, 1, 0.475, 0.127, 0, 0, 0, 0, 1, 1, 0
337, '1', 1, 1, 1, 3.389, 0.904, 0, 0, 0, 0, 1, 1, 0
339, '1', 1, 1, 1, 44.87, 11.965, 0, 0, 0, 0, 1, 1, 0
341, '1', 1, 1, 1, 14.44, 3.851, 0, 0, 0, 0, 1, 1, 0
343, '1', 1, 1, 1, 1.325, 0.353, 0, 0, 0, 0, 1, 1, 0
344, '1', 1, 1, 1, 1.282, 0.342, 0, 0, 0, 0, 1, 1, 0
346, '1', 1, 1, 1, 34.698, 9.253, 0, 0, 0, 0, 1, 1, 0
348, '1', 1, 1, 1, 51.506, 13.735, 0, 0, 0, 0, 1, 1, 0
355, '1', 1, 1, 1, 14.559, 3.882, 0, 0, 0, 0, 1, 1, 0
357, '1', 1, 1, 1, 33.226, 8.86, 0, 0, 0, 0, 1, 1, 0
359, '1', 1, 1, 1, 7.698, 2.053, 0, 0, 0, 0, 1, 1, 0
364, '1', 1, 1, 1, 17.324, 4.62, 0, 0, 0, 0, 1, 1, 0
366, '1', 1, 1, 1, 41.193, 10.985, 0, 0, 0, 0, 1, 1, 0
368, '1', 1, 1, 1, 6.923, 1.846, 0, 0, 0, 0, 1, 1, 0
370, '1', 1, 1, 1, 21.521, 5.739, 0, 0, 0, 0, 1, 1, 0
373, '1', 1, 1, 1, 21.027, 5.607, 0, 0, 0, 0, 1, 1, 0
375, '1', 1, 1, 1, 18.059, 4.816, 0, 0, 0, 0, 1, 1, 0
377, '1', 1, 1, 1, 51.445, 13.719, 0, 0, 0, 0, 1, 1, 0
379, '1', 1, 1, 1, 7.773, 2.073, 0, 0, 0, 0, 1, 1, 0
381, '1', 1, 1, 1, 5.766, 1.538, 0, 0, 0, 0, 1, 1, 0
383, '1', 1, 1, 1, 17.044, 4.545, 0, 0, 0, 0, 1, 1, 0
385, '1', 1, 1, 1, 21.832, 5.822, 0, 0, 0, 0, 1, 1, 0
397, '1', 1, 1, 1, 24.15, 6.44, 0, 0, 0, 0, 1, 1, 0
398, '1', 1, 1, 1, 10.135, 2.703, 0, 0, 0, 0, 1, 1, 0
400, '1', 1, 1, 1, 12.151, 3.24, 0, 0, 0, 0, 1, 1, 0
402, '1', 1, 1, 1, 52.781, 14.075, 0, 0, 0, 0, 1, 1, 0
404, '1', 1, 1, 1, 10.433, 2.782, 0, 0, 0, 0, 1, 1, 0
406, '1', 1, 1, 1, 3.136, 0.836, 0, 0, 0, 0, 1, 1, 0
416, '1', 1, 1, 1, 4.421, 1.179, 0, 0, 0, 0, 1, 1, 0
418, '1', 1, 1, 1, 37.924, 10.113, 0, 0, 0, 0, 1, 1, 0
420, '1', 1, 1, 1, 2.758, 0.735, 0, 0, 0, 0, 1, 1, 0
422, '1', 1, 1, 1, 35.862, 9.563, 0, 0, 0, 0, 1, 1, 0
424, '1', 1, 1, 1, 93.853, 25.028, 0, 0, 0, 0, 1, 1, 0
427, '1', 1, 1, 1, 7.617, 2.031, 0, 0, 0, 0, 1, 1, 0
446, '1', 1, 1, 1, 52.869, 14.098, 0, 0, 0, 0, 1, 1, 0
448, '1', 1, 1, 1, 32.76, 8.736, 0, 0, 0, 0, 1, 1, 0
450, '1', 1, 1, 1, 0.639, 0.17, 0, 0, 0, 0, 1, 1, 0
451, '1', 1, 1, 1, 1.258, 0.336, 0, 0, 0, 0, 1, 1, 0
452, '1', 1, 1, 1, 6.669, 1.778, 0, 0, 0, 0, 1, 1, 0
459, '1', 1, 1, 1, 44.49, 11.864, 0, 0, 0, 0, 1, 1, 0
460, '1', 1, 1, 1, 14.993, 3.998, 0, 0, 0, 0, 1, 1, 0
461, '1', 1, 1, 1, 54.68, 14.581, 0, 0, 0, 0, 1, 1, 0
465, '1', 1, 1, 1, 7.127, 1.901, 0, 0, 0, 0, 1, 1, 0
466, '1', 1, 1, 1, 24.666, 6.578, 0, 0, 0, 0, 1, 1, 0
467, '1', 1, 1, 1, 0.488, 0.13, 0, 0, 0, 0, 1, 1, 0
468, '1', 1, 1, 1, 2.274, 0.606, 0, 0, 0, 0, 1, 1, 0
469, '1', 1, 1, 1, 76.625, 20.433, 0, 0, 0, 0, 1, 1, 0
470, '1', 1, 1, 1, 25.724, 6.86, 0, 0, 0, 0, 1, 1, 0
472, '1', 1, 1, 1, 28.295, 7.545, 0, 0, 0, 0, 1, 1, 0
473, '1', 1, 1, 1, 0.604, 0.161, 0, 0, 0, 0, 1, 1, 0
474, '1', 1, 1, 1, 99.69, 26.584, 0, 0, 0, 0, 1, 1, 0
475, '1', 1, 1, 1, 0.118, 0.032, 0, 0, 0, 0, 1, 1, 0
476, '1', 1, 1, 1, 43.647, 11.639, 0, 0, 0, 0, 1, 1, 0
477, '1', 1, 1, 1, 17.831, 4.755, 0, 0, 0, 0, 1, 1, 0
478, '1', 1, 1, 1, 5.47, 1.459, 0, 0, 0, 0, 1, 1, 0
485, '1', 1, 1, 1, 20.33, 5.421, 0, 0, 0, 0, 1, 1, 0
486, '1', 1, 1, 1, 49.976, 13.327, 0, 0, 0, 0, 1, 1, 0
487, '1', 1, 1, 1, 7.052, 1.881, 0, 0, 0, 0, 1, 1, 0
488, '1', 1, 1, 1, 58.361, 15.563, 0, 0, 0, 0, 1, 1, 0
489, '1', 1, 1, 1, 1.943, 0.518, 0, 0, 0, 0, 1, 1, 0
490, '1', 1, 1, 1, 18.019, 4.805, 0, 0, 0, 0, 1, 1, 0
491, '1', 1, 1, 1, 87.161, 23.243, 0, 0, 0, 0, 1, 1, 0
492, '1', 1, 1, 1, 35.572, 9.486, 0, 0, 0, 0, 1, 1, 0
493, '1', 1, 1, 1, 2.418, 0.645, 0, 0, 0, 0, 1, 1, 0
495, '1', 1, 1, 1, 42.786, 11.41, 0, 0, 0, 0, 1, 1, 0
499, '1', 1, 1, 1, 89.2, 23.787, 0, 0, 0, 0, 1, 1, 0
500, '1', 1, 1, 1, 12.365, 3.297, 0, 0, 0, 0, 1, 1, 0
0 / END OF LOAD DATA, BEGIN FIXED SHUNT DATA
0 / END OF FIXED SHUNT DATA, BEGIN GENERATOR DATA
9, '1', 248.13103, -94.16, 359.66, -94.16, 1.04, 0, 0, 0, 1.0, 0, 0, 1, 1, 1, 771.8, 231.54, 1, 1, 0, 1, 0, 1, 0, 1, 0, 1
16, '1', 0, 0, 163.56, -36.44, 1.032509, 0, 0, 0, 1.0, 0, 0, 1, 0, 1, 444.45, 133.33, 1, 1, 0, 1, 0, 1, 0, 1, 0, 1
17, '1', 888.9, -72.89, 327.12, -72.89, 1.04, 0, 0, 0, 1.0, 0, 0, 1, 1, 1, 888.9, 266.67, 1, 1, 0, 1, 0, 1, 0, 1, 0, 1
18, '1', 157.6, -12.92, 58, -12.92, 1.04, 0, 0, 0, 1.0, 0, 0, 1, 1, 1, 157.6, 47.28, 1, 1, 0, 1, 0, 1, 0, 1, 0, 1
49, '1', 1.3, -0.16, 0.61, -0.16, 1.0010994, 0, 0, 0, 1.0, 0, 0, 1, 1, 1, 1.3, 0.39, 1, 1, 0, 1, 0, 1, 0, 1, 0, 1
50, '1', 2.6, -0.32, 1.21, -0.32, 1.0013822, 0, 0, 0, 1.0, 0, 0, 1, 1, 1, 2.6, 0.78, 1, 1, 0, 1, 0, 1, 0, 1, 0, 1
63, '1', 1.0358447, -0.36, 1.63, -0.36, 1.0183995, 0, 0, 0, 1.0, 0, 0, 1, 1, 1, 3.2, 0.96, 1, 1, 0, 1, 0, 1, 0, 1, 0, 1
71, '1', 1.58, -0.2, 1.54, -0.2, 1.0112044, 0, 0, 0, 1.0, 0, 0, 1, 1, 1, 1.58, 0, 1, 1, 0, 1, 0, 1, 0, 1, 0, 1
72, '1', 0.79, -0.1, 0.77, -0.1, 1.0116319, 0, 0, 0, 1.0, 0, 0, 1, 1, 1, 0.79, 0, 1, 1, 0, 1, 0, 1, 0, 1, 0, 1
73, '1', 0.553, -0.07, 0.54, -0.07, 1.0120326, 0, 0, 0, 1.0, 0, 0, 1, 1, 1, 0.553, 0, 1, 1, 0, 1, 0, 1, 0, 1, 0, 1
82, '1', 142.991, -17.73, 138.97, -17.73, 1.04, 0, 0, 0, 1.0, 0, 0, 1, 1, 1, 142.991, 0, 1, 1, 0, 1, 0, 1, 0, 1, 0, 1
125, '1', 64.008, -7.94, 62.21, -7.94, 1.04, 0, 0, 0, 1.0, 0, 0, 1, 1, 1, 64.008, 0, 1, 1, 0, 1, 0, 1, 0, 1, 0, 1
126, '1', 64.008, -7.94, 62.21, -7.94, 1.04, 0, 0, 0, 1.0, 0, 0, 1, 1, 1, 64.008, 0, 1, 1, 0, 1, 0, 1, 0, 1, 0, 1
127, '1', 64.008, -7.94, 62.21, -7.94, 1.04, 0, 0, 0, 1.0, 0, 0, 1, 1, 1, 64.008, 0, 1, 1, 0, 1, 0, 1, 0, 1, 0, 1
128, '1', 64.008, -7.94, 62.21, -7.94, 1.04, 0, 0, 0, 1.0, 0, 0, 1, 1, 1, 64.008, 0, 1, 1, 0, 1, 0, 1, 0, 1, 0, 1
144, '1', 602.55, -49.41, 221.74, -49.41, 1.04, 0, 0, 0, 1.0, 0, 0, 1, 1, 1, 602.55, 180.76, 1, 1, 0, 1, 0, 1, 0, 1, 0, 1
145, '1', 602.55, -49.41, 221.74, -49.41, 1.04, 0, 0, 0, 1.0, 0, 0, 1, 1, 1, 602.55, 180.76, 1, 1, 0, 1, 0, 1, 0, 1, 0, 1
167, '1', 76.454, -9.48, 74.3, -9.48, 1.04, 0, 0, 0, 1.0, 0, 0, 1, 1, 1, 76.454, 0, 1, 1, 0, 1, 0, 1, 0, 1, 0, 1
168, '1', 76.454, -9.48, 74.3, -9.48, 1.04, 0, 0, 0, 1.0, 0, 0, 1, 1, 1, 76.454, 0, 1, 1, 0, 1, 0, 1, 0, 1, 0, 1
169, '1', 152.908, -18.96, 148.61, -18.96, 1.04, 0, 0, 0, 1.0, 0, 0, 1, 1, 1, 152.908, 0, 1, 1, 0, 1, 0, 1, 0, 1, 0, 1
197, '1', 265.92002, -35.82, 136.82, -35.82, 1.04, 0, 0, 0, 1.0, 0, 0, 1, 1, 1, 293.6, 88.08, 1, 1, 0, 1, 0, 1, 0, 1, 0, 1
198, '1', 207.3, -25.29, 96.6, -25.29, 1.04, 0, 0, 0, 1.0, 0, 0, 1, 1, 1, 207.3, 62.19, 1, 1, 0, 1, 0, 1, 0, 1, 0, 1
222, '1', 2.055, -0.25, 2, -0.25, 1.0391013, 0, 0, 0, 1.0, 0, 0, 1, 1, 1, 2.055, 0, 1, 1, 0, 1, 0, 1, 0, 1, 0, 1
223, '1', 7.112, -0.88, 6.91, -0.88, 1.04, 0, 0, 0, 1.0, 0, 0, 1, 1, 1, 7.112, 0, 1, 1, 0, 1, 0, 1, 0, 1, 0, 1
224, '1', 201.981, -25.05, 196.3, -25.05, 1.04, 0, 0, 0, 1.0, 0, 0, 1, 1, 1, 201.981, 0, 1, 1, 0, 1, 0, 1, 0, 1, 0, 1
225, '1', 203.403, -25.23, 197.68, -25.23, 1.04, 0, 0, 0, 1.0, 0, 0, 1, 1, 1, 203.403, 0, 1, 1, 0, 1, 0, 1, 0, 1, 0, 1
231, '1', 2.9, -0.35, 1.35, -0.35, 1.0089754, 0, 0, 0, 1.0, 0, 0, 1, 1, 1, 2.9, 0.87, 1, 1, 0, 1, 0, 1, 0, 1, 0, 1
248, '1', 0, -2.386, 67.8, -14.79, 1.0391711, 0, 0, 0, 1.0, 0, 0, 1, 0, 1, 133.2, 39.96, 1, 1, 0, 1, 0, 1, 0, 1, 0, 1
249, '1', 0, 0, 67.8, -14.79, 1.0391711, 0, 0, 0, 1.0, 0, 0, 1, 0, 1, 133.2, 39.96, 1, 1, 0, 1, 0, 1, 0, 1, 0, 1
250, '1', 0, 0, 271.2, -59.14, 1.0391711, 0, 0, 0, 1.0, 0, 0, 1, 0, 1, 532.8, 159.84, 1, 1, 0, 1, 0, 1, 0, 1, 0, 1
254, '1', 4.1, -0.5, 1.91, -0.5, 1.0130036, 0, 0, 0, 1.0, 0, 0, 1, 1, 1, 4.1, 1.23, 1, 1, 0, 1, 0, 1, 0, 1, 0, 1
255, '1', 3.3, -0.4, 1.54, -0.4, 1.0120559, 0, 0, 0, 1.0, 0, 0, 1, 1, 1, 3.3, 0.99, 1, 1, 0, 1, 0, 1, 0, 1, 0, 1
256, '1', 2.9, -0.35, 1.35, -0.35, 1.0129874, 0, 0, 0, 1.0, 0, 0, 1, 1, 1, 2.9, 0.87, 1, 1, 0, 1, 0, 1, 0, 1, 0, 1
257, '1', 5.4, -0.66, 2.52, -0.66, 1.0124724, 0, 0, 0, 1.0, 0, 0, 1, 1, 1, 5.4, 1.62, 1, 1, 0, 1, 0, 1, 0, 1, 0, 1
258, '1', 1.1, -0.13, 0.51, -0.13, 1.0117542, 0, 0, 0, 1.0, 0, 0, 1, 1, 1, 1.1, 0.33, 1, 1, 0, 1, 0, 1, 0, 1, 0, 1
264, '1', 12.689098, -4.35, 19.95, -4.35, 1.0391046, 0, 0, 0, 1.0, 0, 0, 1, 1, 1, 39.2, 11.76, 1, 1, 0, 1, 0, 1, 0, 1, 0, 1
265, '1', 3.4312356, -1.18, 5.4, -1.18, 1.0312275, 0, 0, 0, 1.0, 0, 0, 1, 1, 1, 10.6, 3.18, 1, 1, 0, 1, 0, 1, 0, 1, 0, 1
275, '1', 32.758589, -11.23, 51.51, -11.23, 1.04, 0, 0, 0, 1.0, 0, 0, 1, 1, 1, 101.2, 30.36, 1, 1, 0, 1, 0, 1, 0, 1, 0, 1
301, '1', 2.9, -0.35, 1.35, -0.35, 1.011172, 0, 0, 0, 1.0, 0, 0, 1, 1, 1, 2.9, 0.87, 1, 1, 0, 1, 0, 1, 0, 1, 0, 1
302, '1', 2.9, -0.35, 1.35, -0.35, 1.0111436, 0, 0, 0, 1.0, 0, 0, 1, 1, 1, 2.9, 0.87, 1, 1, 0, 1, 0, 1, 0, 1, 0, 1
305, '1', 0.395, -0.05, 0.38, -0.05, 1.0071039, 0, 0, 0, 1.0, 0, 0, 1, 1, 1, 0.395, 0, 1, 1, 0, 1, 0, 1, 0, 1, 0, 1
306, '1', 0.948, -0.12, 0.92, -0.12, 1.0073317, 0, 0, 0, 1.0, 0, 0, 1, 1, 1, 0.948, 0, 1, 1, 0, 1, 0, 1, 0, 1, 0, 1
319, '1', 16.713, -2.07, 16.24, -2.07, 1.04, 0, 0, 0, 1.0, 0, 0, 1, 1, 1, 16.713, 0, 1, 1, 0, 1, 0, 1, 0, 1, 0, 1
350, '1', 5.927, -0.74, 5.76, -0.74, 1.0330947, 0, 0, 0, 1.0, 0, 0, 1, 1, 1, 5.927, 0, 1, 1, 0, 1, 0, 1, 0, 1, 0, 1
351, '1', 2.45, -0.3, 2.38, -0.3, 1.0308759, 0, 0, 0, 1.0, 0, 0, 1, 1, 1, 2.45, 0, 1, 1, 0, 1, 0, 1, 0, 1, 0, 1
352, '1', 5.69, -0.71, 5.53, -0.71, 1.0329764, 0, 0, 0, 1.0, 0, 0, 1, 1, 1, 5.69, 0, 1, 1, 0, 1, 0, 1, 0, 1, 0, 1
353, '1', 29.238, -3.63, 28.42, -3.63, 1.04, 0, 0, 0, 1.0, 0, 0, 1, 1, 1, 29.238, 0, 1, 1, 0, 1, 0, 1, 0, 1, 0, 1
361, '1', 0.51792235, -0.18, 0.81, -0.18, 1.023895, 0, 0, 0, 1.0, 0, 0, 1, 1, 1, 1.6, 0.48, 1, 1, 0, 1, 0, 1, 0, 1, 0, 1
362, '1', 3.5607161, -1.22, 5.6, -1.22, 1.0276992, 0, 0, 0, 1.0, 0, 0, 1, 1, 1, 11, 3.3, 1, 1, 0, 1, 0, 1, 0, 1, 0, 1
363, '1', 1.0358447, -0.36, 1.63, -0.36, 1.0230307, 0, 0, 0, 1.0, 0, 0, 1, 1, 1, 3.2, 0.96, 1, 1, 0, 1, 0, 1, 0, 1, 0, 1
388, '1', 3.2370147, -1.11, 5.09, -1.11, 1.0328763, 0, 0, 0, 1.0, 0, 0, 1, 1, 1, 10, 3, 1, 1, 0, 1, 0, 1, 0, 1, 0, 1
389, '1', 0, 0, 88.23, -19.24, 1.0307756, 0, 0, 0, 1.0, 0, 0, 1, 0, 1, 173.333, 52, 1, 1, 0, 1, 0, 1, 0, 1, 0, 1
390, '1', 0, 0, 88.23, -19.24, 1.0307756, 0, 0, 0, 1.0, 0, 0, 1, 0, 1, 173.333, 52, 1, 1, 0, 1, 0, 1, 0, 1, 0, 1
391, '1', 0, 0, 88.23, -19.24, 1.0307756, 0, 0, 0, 1.0, 0, 0, 1, 0, 1, 173.333, 52, 1, 1, 0, 1, 0, 1, 0, 1, 0, 1
392, '1', 0, 0, 59.25, -12.92, 1.0307756, 0, 0, 0, 1.0, 0, 0, 1, 0, 1, 116.4, 34.92, 1, 1, 0, 1, 0, 1, 0, 1, 0, 1
393, '1', 0, 0, 59.25, -12.92, 1.0307756, 0, 0, 0, 1.0, 0, 0, 1, 0, 1, 116.4, 34.92, 1, 1, 0, 1, 0, 1, 0, 1, 0, 1
394, '1', 0, 0, 59.25, -12.92, 1.0307756, 0, 0, 0, 1.0, 0, 0, 1, 0, 1, 116.4, 34.92, 1, 1, 0, 1, 0, 1, 0, 1, 0, 1
395, '1', 0, 0, 59.25, -12.92, 1.0307756, 0, 0, 0, 1.0, 0, 0, 1, 0, 1, 116.4, 34.92, 1, 1, 0, 1, 0, 1, 0, 1, 0, 1
396, '1', 0, 0, 59.25, -12.92, 1.0307756, 0, 0, 0, 1.0, 0, 0, 1, 0, 1, 116.4, 34.92, 1, 1, 0, 1, 0, 1, 0, 1, 0, 1
409, '1', 32.370147, -11.1, 50.9, -11.1, 1.04, 0, 0, 0, 1.0, 0, 0, 1, 1, 1, 100, 30, 1, 1, 0, 1, 0, 1, 0, 1, 0, 1
410, '1', 0, 0, 69.71, -15.2, 1.0357251, 0, 0, 0, 1.0, 0, 0, 1, 0, 1, 136.95, 41.08, 1, 1, 0, 1, 0, 1, 0, 1, 0, 1
411, '1', 0, 6.257, 69.71, -15.2, 1.0357251, 0, 0, 0, 1.0, 0, 0, 1, 0, 1, 136.95, 41.08, 1, 1, 0, 1, 0, 1, 0, 1, 0, 1
412, '1', 0, 0, 69.71, -15.2, 1.0357251, 0, 0, 0, 1.0, 0, 0, 1, 0, 1, 136.95, 41.08, 1, 1, 0, 1, 0, 1, 0, 1, 0, 1
413, '1', 0, 4.234, 69.71, -15.2, 1.0357251, 0, 0, 0, 1.0, 0, 0, 1, 0, 1, 136.95, 41.08, 1, 1, 0, 1, 0, 1, 0, 1, 0, 1
414, '1', 35.963233, -12.33, 56.55, -12.33, 1.04, 0, 0, 0, 1.0, 0, 0, 1, 1, 1, 111.1, 33.33, 1, 1, 0, 1, 0, 1, 0, 1, 0, 1
430, '1', 0.395, -0.05, 0.38, -0.05, 1.0386957, 0, 0, 0, 1.0, 0, 0, 1, 1, 1, 0.395, 0, 1, 1, 0, 1, 0, 1, 0, 1, 0, 1
431, '1', 1.304, -0.16, 1.27, -0.16, 1.038909, 0, 0, 0, 1.0, 0, 0, 1, 1, 1, 1.304, 0, 1, 1, 0, 1, 0, 1, 0, 1, 0, 1
432, '1', 0.474, -0.06, 0.46, -0.06, 1.0386004, 0, 0, 0, 1.0, 0, 0, 1, 1, 1, 0.474, 0, 1, 1, 0, 1, 0, 1, 0, 1, 0, 1
433, '1', 2.647, -0.33, 2.57, -0.33, 1.04, 0, 0, 0, 1.0, 0, 0, 1, 1, 1, 2.647, 0, 1, 1, 0, 1, 0, 1, 0, 1, 0, 1
434, '1', 1.699, -0.21, 1.65, -0.21, 1.0388232, 0, 0, 0, 1.0, 0, 0, 1, 1, 1, 1.699, 0, 1, 1, 0, 1, 0, 1, 0, 1, 0, 1
435, '1', 77.837, -9.65, 75.65, -9.65, 1.04, 0, 0, 0, 1.0, 0, 0, 1, 1, 1, 77.837, 0, 1, 1, 0, 1, 0, 1, 0, 1, 0, 1
436, '1', 77.837, -9.65, 75.65, -9.65, 1.04, 0, 0, 0, 1.0, 0, 0, 1, 1, 1, 77.837, 0, 1, 1, 0, 1, 0, 1, 0, 1, 0, 1
437, '1', 77.837, -9.65, 75.65, -9.65, 1.04, 0, 0, 0, 1.0, 0, 0, 1, 1, 1, 77.837, 0, 1, 1, 0, 1, 0, 1, 0, 1, 0, 1
438, '1', 77.837, -9.65, 75.65, -9.65, 1.04, 0, 0, 0, 1.0, 0, 0, 1, 1, 1, 77.837, 0, 1, 1, 0, 1, 0, 1, 0, 1, 0, 1
439, '1', 77.837, -9.65, 75.65, -9.65, 1.04, 0, 0, 0, 1.0, 0, 0, 1, 1, 1, 77.837, 0, 1, 1, 0, 1, 0, 1, 0, 1, 0, 1
442, '1', 34.959759, -11.99, 54.97, -11.99, 1.04, 0, 0, 0, 1.0, 0, 0, 1, 1, 1, 108, 32.4, 1, 1, 0, 1, 0, 1, 0, 1, 0, 1
443, '1', 0, 34.025, 89.07, -19.43, 1.0251635, 0, 0, 0, 1.0, 0, 0, 1, 0, 1, 175, 52.5, 1, 1, 0, 1, 0, 1, 0, 1, 0, 1
444, '1', 1.0682148, -0.37, 1.68, -0.37, 1.0266386, 0, 0, 0, 1.0, 0, 0, 1, 1, 1, 3.3, 0.99, 1, 1, 0, 1, 0, 1, 0, 1, 0, 1
455, '1', 0, 45.13, 113.42, -24.73, 1.0271556, 0, 0, 0, 1.0, 0, 0, 1, 0, 1, 222.833, 66.85, 1, 1, 0, 1, 0, 1, 0, 1, 0, 1
456, '1', 0, 0, 226.84, -49.47, 1.0271556, 0, 0, 0, 1.0, 0, 0, 1, 0, 1, 445.667, 133.7, 1, 1, 0, 1, 0, 1, 0, 1, 0, 1
458, '1', 0, 0, 0, 0, 1.0239625, 0, 0, 0, 1.0, 0, 0, 1, 0, 1, 109.6, 32.88, 1, 1, 0, 1, 0, 1, 0, 1, 0, 1
463, '1', 7.2, -0.88, 3.36, -0.88, 1.0319387, 0, 0, 0, 1.0, 0, 0, 1, 1, 1, 7.2, 2.16, 1, 1, 0, 1, 0, 1, 0, 1, 0, 1
480, '1', 22.126, -2.74, 21.5, -2.74, 1.04, 0, 0, 0, 1.0, 0, 0, 1, 1, 1, 22.126, 0, 1, 1, 0, 1, 0, 1, 0, 1, 0, 1
481, '1', 17.78, -2.21, 17.28, -2.21, 1.04, 0, 0, 0, 1.0, 0, 0, 1, 1, 1, 17.78, 0, 1, 1, 0, 1, 0, 1, 0, 1, 0, 1
482, '1', 17.78, -2.21, 17.28, -2.21, 1.04, 0, 0, 0, 1.0, 0, 0, 1, 1, 1, 17.78, 0, 1, 1, 0, 1, 0, 1, 0, 1, 0, 1
483, '1', 9.483, -1.18, 9.22, -1.18, 1.04, 0, 0, 0, 1.0, 0, 0, 1, 1, 1, 9.483, 0, 1, 1, 0, 1, 0, 1, 0, 1, 0, 1
484, '1', 11.063, -1.37, 10.75, -1.37, 1.04, 0, 0, 0, 1.0, 0, 0, 1, 1, 1, 11.063, 0, 1, 1, 0, 1, 0, 1, 0, 1, 0, 1
494, '1', 5.8, -0.71, 2.7, -0.71, 1.0267567, 0, 0, 0, 1.0, 0, 0, 1, 1, 1, 5.8, 1.74, 1, 1, 0, 1, 0, 1, 0, 1, 0, 1
497, '1', 23.707, -2.94, 23.04, -2.94, 1.04, 0, 0, 0, 1.0, 0, 0, 1, 1, 1, 23.707, 0, 1, 1, 0, 1, 0, 1, 0, 1, 0, 1
498, '1', 7.112, -0.88, 6.91, -0.88, 1.0361211, 0, 0, 0, 1.0, 0, 0, 1, 1, 1, 7.112, 0, 1, 1, 0, 1, 0, 1, 0, 1, 0, 1
0 / END OF GENERATOR DATA, BEGIN BRANCH DATA
2, 1, '1', 0.000530993, 0.00313968, 0, 76.5, 76.5, 76.5, 0, 0, 0, 0, 1, 1, 0, 1, 1, 0, 1, 0, 1, 0, 1
44, 1, '1', 0.00547862, 0.0502567, 0.0178098, 250, 250, 250, 0, 0, 0, 0, 1, 1, 0, 1, 1, 0, 1, 0, 1, 0, 1
421, 1, '1', 0.00536892, 0.0515552, 0.0166426, 200, 200, 200, 0, 0, 0, 0, 1, 1, 0, 1, 1, 0, 1, 0, 1, 0, 1
4, 3, '1', 0.000692061, 0.00351835, 0, 225.1, 225.1, 225.1, 0, 0, 0, 0, 1, 1, 0, 1, 1, 0, 1, 0, 1, 0, 1
62, 3, '1', 0.0027178, 0.0260978, 0.00842465, 250, 250, 250, 0, 0, 0, 0, 1, 1, 0, 1, 1, 0, 1, 0, 1, 0, 1
3, 479, '1', 0.00725845, 0.0696995, 0.0224998, 145, 145, 145, 0, 0, 0, 0, 1, 1, 0, 1, 1, 0, 1, 0, 1, 0, 1
6, 5, '1', 0.000555857, 0.00356302, 0, 4.5, 4.5, 4.5, 0, 0, 0, 0, 1, 1, 0, 1, 1, 0, 1, 0, 1, 0, 1
316, 5, '1', 0.00244518, 0.0234799, 0.00757958, 145, 145, 145, 0, 0, 0, 0, 1, 1, 0, 1, 1, 0, 1, 0, 1, 0, 1
401, 5, '1', 0.00488619, 0.0469198, 0.0151462, 145, 145, 145, 0, 0, 0, 0, 1, 1, 0, 1, 1, 0, 1, 0, 1, 0, 1
7, 232, '1', 0.00111912, 0.0148076, 0.312051, 1100, 1100, 1100, 0, 0, 0, 0, 1, 1, 0, 1, 1, 0, 1, 0, 1, 0, 1
7, 262, '1', 0.000946655, 0.0137492, 0.239936, 900, 900, 900, 0, 0, 0, 0, 1, 1, 0, 1, 1, 0, 1, 0, 1, 0, 1
8, 287, '1', 0.00372677, 0.0357864, 0.0115523, 300, 300, 300, 0, 0, 0, 0, 1, 1, 0, 1, 1, 0, 1, 0, 1, 0, 1
8, 457, '1', 0.00197391, 0.0189546, 0.00611875, 200, 200, 200, 0, 0, 0, 0, 1, 1, 0, 1, 1, 0, 1, 0, 1, 0, 1
11, 10, '1', 0.000654968, 0.00320079, 0, 4, 4, 4, 0, 0, 0, 0, 1, 1, 0, 1, 1, 0, 1, 0, 1, 0, 1
342, 10, '1', 0.00282453, 0.0271226, 0.00875548, 145, 145, 145, 0, 0, 0, 0, 1, 1, 0, 1, 1, 0, 1, 0, 1, 0, 1
10, 349, '1', 0.00140166, 0.0134595, 0.00434489, 145, 145, 145, 0, 0, 0, 0, 1, 1, 0, 1, 1, 0, 1, 0, 1, 0, 1
13, 12, '1', 0.000623092, 0.00313413, 0, 65.5, 65.5, 65.5, 0, 0, 0, 0, 1, 1, 0, 1, 1, 0, 1, 0, 1, 0, 1
12, 216, '1', 0.00396229, 0.038048, 0.0122823, 270, 270, 270, 0, 0, 0, 0, 1, 1, 0, 1, 1, 0, 1, 0, 1, 0, 1
12, 304, '1', 0.00231014, 0.0211915, 0.00750976, 290, 290, 290, 0, 0, 0, 0, 1, 1, 0, 1, 1, 0, 1, 0, 1, 0, 1
12, 441, '1', 0.00156469, 0.015025, 0.00485023, 280, 280, 280, 0, 0, 0, 0, 1, 1, 0, 1, 1, 0, 1, 0, 1, 0, 1
386, 14, '1', 0.000316955, 0.00454654, 0.0813632, 900, 900, 900, 0, 0, 0, 0, 1, 1, 0, 1, 1, 0, 1, 0, 1, 0, 1
386, 14, '2', 0.00032, 0.00455, 0.08136, 1200, 1200, 1200, 0, 0, 0, 0, 1, 1, 0, 1, 1, 0, 1, 0, 1, 0, 1
15, 91, '1', 0.00479928, 0.0460852, 0.0148768, 160, 160, 160, 0, 0, 0, 0, 1, 1, 0, 1, 1, 0, 1, 0, 1, 0, 1
15, 230, '1', 0.0108937, 0.104607, 0.0337685, 220, 220, 220, 0, 0, 0, 0, 1, 1, 0, 1, 1, 0, 1, 0, 1, 0, 1
367, 15, '1', 0.00191786, 0.0184163, 0.00594499, 330, 330, 330, 0, 0, 0, 0, 1, 1, 0, 1, 1, 0, 1, 0, 1, 0, 1
15, 369, '1', 0.00185435, 0.0170105, 0.0060281, 220, 220, 220, 0, 0, 0, 0, 1, 1, 0, 1, 1, 0, 1, 0, 1, 0, 1
15, 473, '1', 0.00922481, 0.0846215, 0.0299878, 145, 145, 145, 0, 0, 0, 0, 1, 1, 0, 1, 1, 0, 1, 0, 1, 0, 1
20, 19, '1', 0.000541213, 0.00388582, 0, 7.5, 7.5, 7.5, 0, 0, 0, 0, 1, 1, 0, 1, 1, 0, 1, 0, 1, 0, 1
19, 112, '1', 0.00472218, 0.0453449, 0.0146378, 145, 145, 145, 0, 0, 0, 0, 1, 1, 0, 1, 1, 0, 1, 0, 1, 0, 1
193, 19, '1', 0.00222052, 0.0213226, 0.00688319, 270, 270, 270, 0, 0, 0, 0, 1, 1, 0, 1, 1, 0, 1, 0, 1, 0, 1
19, 272, '1', 0.00229314, 0.0220199, 0.00710827, 205, 205, 205, 0, 0, 0, 0, 1, 1, 0, 1, 1, 0, 1, 0, 1, 0, 1
22, 21, '1', 0.000587223, 0.00317397, 0, 254.2, 254.2, 254.2, 0, 0, 0, 0, 1, 1, 0, 1, 1, 0, 1, 0, 1, 0, 1
21, 112, '1', 0.00509204, 0.0488965, 0.0157843, 270, 270, 270, 0, 0, 0, 0, 1, 1, 0, 1, 1, 0, 1, 0, 1, 0, 1
21, 196, '1', 0.00220719, 0.0202471, 0.00717509, 365, 365, 365, 0, 0, 0, 0, 1, 1, 0, 1, 1, 0, 1, 0, 1, 0, 1
151, 23, '1', 0.000182, 0.002607, 0.046646, 1050, 1050, 1050, 0, 0, 0, 0, 0, 1, 0, 1, 1, 0, 1, 0, 1, 0, 1
23, 386, '1', 0.001642, 0.023851, 0.416226, 1000, 1000, 1000, 0, 0, 0, 0, 1, 1, 0, 1, 1, 0, 1, 0, 1, 0, 1
23, 464, '1', 0.000947169, 0.0125324, 0.264105, 1000, 1000, 1000, 0, 0, 0, 0, 0, 1, 0, 1, 1, 0, 1, 0, 1, 0, 1
23, 471, '1', 0.000532103, 0.0070405, 0.14837, 1100, 1100, 1100, 0, 0, 0, 0, 1, 1, 0, 1, 1, 0, 1, 0, 1, 0, 1
25, 24, '1', 0.000613052, 0.00362887, 0, 3.6, 3.6, 3.6, 0, 0, 0, 0, 1, 1, 0, 1, 1, 0, 1, 0, 1, 0, 1
26, 24, '1', 0.000563017, 0.00372943, 0, 29.5, 29.5, 29.5, 0, 0, 0, 0, 1, 1, 0, 1, 1, 0, 1, 0, 1, 0, 1
210, 24, '1', 0.00221775, 0.020344, 0.00720941, 270, 270, 270, 0, 0, 0, 0, 1, 1, 0, 1, 1, 0, 1, 0, 1, 0, 1
24, 360, '1', 0.0023654, 0.0227138, 0.00733228, 240, 240, 240, 0, 0, 0, 0, 1, 1, 0, 1, 1, 0, 1, 0, 1, 0, 1
28, 27, '1', 0.000686715, 0.00396302, 0, 108.6, 108.6, 108.6, 0, 0, 0, 0, 1, 1, 0, 1, 1, 0, 1, 0, 1, 0, 1
27, 68, '1', 0.00560738, 0.053845, 0.0173818, 300, 300, 300, 0, 0, 0, 0, 1, 1, 0, 1, 1, 0, 1, 0, 1, 0, 1
27, 382, '1', 0.00336979, 0.0309119, 0.0109544, 185, 185, 185, 0, 0, 0, 0, 1, 1, 0, 1, 1, 0, 1, 0, 1, 0, 1
30, 29, '1', 0.000616364, 0.00329848, 0, 157, 157, 157, 0, 0, 0, 0, 1, 1, 0, 1, 1, 0, 1, 0, 1, 0, 1
454, 29, '1', 0.00246982, 0.0226563, 0.00802886, 300, 300, 300, 0, 0, 0, 0, 1, 1, 0, 1, 1, 0, 1, 0, 1, 0, 1
29, 491, '1', 0.005607, 0.053837, 0.017379, 145, 145, 145, 0, 0, 0, 0, 1, 1, 0, 1, 1, 0, 1, 0, 1, 0, 1
32, 31, '1', 0.000625228, 0.00342917, 0, 15.7, 15.7, 15.7, 0, 0, 0, 0, 1, 1, 0, 1, 1, 0, 1, 0, 1, 0, 1
31, 85, '1', 0.00530344, 0.0509265, 0.0164396, 300, 300, 300, 0, 0, 0, 0, 1, 1, 0, 1, 1, 0, 1, 0, 1, 0, 1
104, 31, '1', 0.00552581, 0.0530617, 0.0171289, 145, 145, 145, 0, 0, 0, 0, 1, 1, 0, 1, 1, 0, 1, 0, 1, 0, 1
31, 189, '1', 0.0057068, 0.0547997, 0.01769, 145, 145, 145, 0, 0, 0, 0, 1, 1, 0, 1, 1, 0, 1, 0, 1, 0, 1
31, 205, '1', 0.00779682, 0.0748692, 0.0241686, 145, 145, 145, 0, 0, 0, 0, 1, 1, 0, 1, 1, 0, 1, 0, 1, 0, 1
31, 218, '1', 0.00827343, 0.0794458, 0.025646, 145, 145, 145, 0, 0, 0, 0, 1, 1, 0, 1, 1, 0, 1, 0, 1, 0, 1
267, 31, '1', 0.00489674, 0.0470211, 0.0151789, 220, 220, 220, 0, 0, 0, 0, 1, 1, 0, 1, 1, 0, 1, 0, 1, 0, 1
34, 33, '1', 0.000624403, 0.00328363, 0, 43.4, 43.4, 43.4, 0, 0, 0, 0, 1, 1, 0, 1, 1, 0, 1, 0, 1, 0, 1
83, 33, '1', 0.00528651, 0.0507639, 0.0163871, 220, 220, 220, 0, 0, 0, 0, 1, 1, 0, 1, 1, 0, 1, 0, 1, 0, 1
112, 33, '1', 0.00706143, 0.0678076, 0.021889, 220, 220, 220, 0, 0, 0, 0, 1, 1, 0, 1, 1, 0, 1, 0, 1, 0, 1
36, 35, '1', 0.000582978, 0.00303006, 0, 62.9, 62.9, 62.9, 0, 0, 0, 0, 1, 1, 0, 1, 1, 0, 1, 0, 1, 0, 1
191, 35, '1', 0.00403801, 0.0370417, 0.0131267, 145, 145, 145, 0, 0, 0, 0, 1, 1, 0, 1, 1, 0, 1, 0, 1, 0, 1
35, 399, '1', 0.005636, 0.054123, 0.017472, 270, 270, 270, 0, 0, 0, 0, 1, 1, 0, 1, 1, 0, 1, 0, 1, 0, 1
38, 37, '1', 0.0005458, 0.00382289, 0, 0.2, 0.2, 0.2, 0, 0, 0, 0, 1, 1, 0, 1, 1, 0, 1, 0, 1, 0, 1
76, 37, '1', 0.00147415, 0.0141555, 0.00456957, 270, 270, 270, 0, 0, 0, 0, 1, 1, 0, 1, 1, 0, 1, 0, 1, 0, 1
37, 176, '1', 0.00303873, 0.0291795, 0.00941948, 275, 275, 275, 0, 0, 0, 0, 1, 1, 0, 1, 1, 0, 1, 0, 1, 0, 1
39, 332, '1', 0.000403375, 0.00578618, 0.103547, 900, 900, 900, 0, 0, 0, 0, 0, 1, 0, 1, 1, 0, 1, 0, 1, 0, 1
39, 428, '1', 0.000521367, 0.00689845, 0.145376, 900, 900, 900, 0, 0, 0, 0, 1, 1, 0, 1, 1, 0, 1, 0, 1, 0, 1
41, 40, '1', 0.000631179, 0.00392265, 0, 97.5, 97.5, 97.5, 0, 0, 0, 0, 1, 1, 0, 1, 1, 0, 1, 0, 1, 0, 1
40, 131, '1', 0.00290861, 0.0266814, 0.00945527, 145, 145, 145, 0, 0, 0, 0, 1, 1, 0, 1, 1, 0, 1, 0, 1, 0, 1
43, 42, '1', 0.000541641, 0.00311887, 0, 7.7, 7.7, 7.7, 0, 0, 0, 0, 1, 1, 0, 1, 1, 0, 1, 0, 1, 0, 1
81, 42, '1', 0.00236124, 0.0216602, 0.00767586, 270, 270, 270, 0, 0, 0, 0, 1, 1, 0, 1, 1, 0, 1, 0, 1, 0, 1
42, 191, '1', 0.0063685, 0.0584198, 0.0207026, 270, 270, 270, 0, 0, 0, 0, 1, 1, 0, 1, 1, 0, 1, 0, 1, 0, 1
45, 44, '1', 0.000636537, 0.00387643, 0, 2.8, 2.8, 2.8, 0, 0, 0, 0, 1, 1, 0, 1, 1, 0, 1, 0, 1, 0, 1
44, 200, '1', 0.00210518, 0.0193113, 0.00684347, 250, 250, 250, 0, 0, 0, 0, 1, 1, 0, 1, 1, 0, 1, 0, 1, 0, 1
47, 46, '1', 0.000602161, 0.00345412, 0, 63, 63, 63, 0, 0, 0, 0, 1, 1, 0, 1, 1, 0, 1, 0, 1, 0, 1
46, 156, '1', 0.00661096, 0.0634819, 0.0204927, 185, 185, 185, 0, 0, 0, 0, 1, 1, 0, 1, 1, 0, 1, 0, 1, 0, 1
238, 46, '1', 0.00313385, 0.0300929, 0.00971433, 185, 185, 185, 0, 0, 0, 0, 1, 1, 0, 1, 1, 0, 1, 0, 1, 0, 1
51, 48, '1', 0.000657783, 0.00367224, 0, 0.6, 0.6, 0.6, 0, 0, 0, 0, 1, 1, 0, 1, 1, 0, 1, 0, 1, 0, 1
52, 48, '1', 0.00062, 0.00334229, 0, 37.9, 37.9, 37.9, 0, 0, 0, 0, 1, 1, 0, 1, 1, 0, 1, 0, 1, 0, 1
358, 48, '1', 0.00450039, 0.0412832, 0.0146298, 270, 270, 270, 0, 0, 0, 0, 1, 1, 0, 1, 1, 0, 1, 0, 1, 0, 1
419, 48, '1', 0.0046368, 0.044525, 0.0143732, 220, 220, 220, 0, 0, 0, 0, 1, 1, 0, 1, 1, 0, 1, 0, 1, 0, 1
54, 53, '1', 0.000680462, 0.00306134, 0, 51.3, 51.3, 51.3, 0, 0, 0, 0, 1, 1, 0, 1, 1, 0, 1, 0, 1, 0, 1
233, 53, '1', 0.00236198, 0.0216671, 0.0076783, 200, 200, 200, 0, 0, 0, 0, 1, 1, 0, 1, 1, 0, 1, 0, 1, 0, 1
53, 276, '1', 0.0015021, 0.0144239, 0.00465621, 200, 200, 200, 0, 0, 0, 0, 1, 1, 0, 1, 1, 0, 1, 0, 1, 0, 1
56, 55, '1', 0.000640992, 0.00331002, 0, 3.1, 3.1, 3.1, 0, 0, 0, 0, 1, 1, 0, 1, 1, 0, 1, 0, 1, 0, 1
55, 66, '1', 0.00432958, 0.041575, 0.0134209, 145, 145, 145, 0, 0, 0, 0, 1, 1, 0, 1, 1, 0, 1, 0, 1, 0, 1
55, 500, '1', 0.00448061, 0.0411018, 0.0145655, 145, 145, 145, 0, 0, 0, 0, 1, 1, 0, 1, 1, 0, 1, 0, 1, 0, 1
57, 123, '1', 0.001682, 0.024427, 0.426274, 1000, 1000, 1000, 0, 0, 0, 0, 1, 1, 0, 1, 1, 0, 1, 0, 1, 0, 1
440, 57, '1', 0.000600772, 0.00872563, 0.15227, 900, 900, 900, 0, 0, 0, 0, 1, 1, 0, 1, 1, 0, 1, 0, 1, 0, 1
59, 58, '1', 0.000620439, 0.00384844, 0, 252.9, 252.9, 252.9, 0, 0, 0, 0, 1, 1, 0, 1, 1, 0, 1, 0, 1, 0, 1
58, 253, '1', 0.00453214, 0.04352, 0.0140487, 200, 200, 200, 0, 0, 0, 0, 1, 1, 0, 1, 1, 0, 1, 0, 1, 0, 1
322, 58, '1', 0.00201876, 0.0193852, 0.00625775, 220, 220, 220, 0, 0, 0, 0, 1, 1, 0, 1, 1, 0, 1, 0, 1, 0, 1
322, 58, '2', 0.00202, 0.01939, 0.00626, 320.3, 320.3, 320.3, 0, 0, 0, 0, 1, 1, 0, 1, 1, 0, 1, 0, 1, 0, 1
61, 60, '1', 0.000528782, 0.00351793, 0, 0.3, 0.3, 0.3, 0, 0, 0, 0, 1, 1, 0, 1, 1, 0, 1, 0, 1, 0, 1
60, 131, '1', 0.0019849, 0.018208, 0.00645249, 185, 185, 185, 0, 0, 0, 0, 1, 1, 0, 1, 1, 0, 1, 0, 1, 0, 1
466, 60, '1', 0.00201135, 0.0193141, 0.00623481, 185, 185, 185, 0, 0, 0, 0, 1, 1, 0, 1, 1, 0, 1, 0, 1, 0, 1
64, 62, '1', 0.000661196, 0.00327389, 0, 45.6, 45.6, 45.6, 0, 0, 0, 0, 1, 1, 0, 1, 1, 0, 1, 0, 1, 0, 1
287, 62, '1', 0.00545324, 0.0523649, 0.016904, 160, 160, 160, 0, 0, 0, 0, 1, 1, 0, 1, 1, 0, 1, 0, 1, 0, 1
62, 457, '1', 0.00726746, 0.069786, 0.0225277, 200, 200, 200, 0, 0, 0, 0, 1, 1, 0, 1, 1, 0, 1, 0, 1, 0, 1
80, 65, '1', 0.000960188, 0.0137734, 0.246483, 1350, 1350, 1350, 0, 0, 0, 0, 0, 1, 0, 1, 1, 0, 1, 0, 1, 0, 1
65, 297, '1', 0.000919634, 0.0131916, 0.236073, 900, 900, 900, 0, 0, 0, 0, 0, 1, 0, 1, 1, 0, 1, 0, 1, 0, 1
67, 66, '1', 0.000661357, 0.00335859, 0, 6.7, 6.7, 6.7, 0, 0, 0, 0, 1, 1, 0, 1, 1, 0, 1, 0, 1, 0, 1
66, 308, '1', 0.00718043, 0.0689503, 0.0222579, 270, 270, 270, 0, 0, 0, 0, 1, 1, 0, 1, 1, 0, 1, 0, 1, 0, 1
69, 68, '1', 0.00066883, 0.00399823, 0, 27.6, 27.6, 27.6, 0, 0, 0, 0, 1, 1, 0, 1, 1, 0, 1, 0, 1, 0, 1
68, 295, '1', 0.00446902, 0.0409955, 0.0145278, 145, 145, 145, 0, 0, 0, 0, 0, 1, 0, 1, 1, 0, 1, 0, 1, 0, 1
68, 314, '1', 0.00180512, 0.0173337, 0.00559552, 220, 220, 220, 0, 0, 0, 0, 1, 1, 0, 1, 1, 0, 1, 0, 1, 0, 1
216, 70, '1', 0.00259564, 0.0238105, 0.00843787, 170, 170, 170, 0, 0, 0, 0, 1, 1, 0, 1, 1, 0, 1, 0, 1, 0, 1
70, 490, '1', 0.00212701, 0.0195116, 0.00691444, 170, 170, 170, 0, 0, 0, 0, 1, 1, 0, 1, 1, 0, 1, 0, 1, 0, 1
75, 74, '1', 0.00058441, 0.0033391, 0, 8.8, 8.8, 8.8, 0, 0, 0, 0, 1, 1, 0, 1, 1, 0, 1, 0, 1, 0, 1
74, 189, '1', 0.00563229, 0.0540843, 0.017459, 220, 220, 220, 0, 0, 0, 0, 1, 1, 0, 1, 1, 0, 1, 0, 1, 0, 1
240, 74, '1', 0.00443354, 0.04067, 0.0144125, 220, 220, 220, 0, 0, 0, 0, 1, 1, 0, 1, 1, 0, 1, 0, 1, 0, 1
77, 76, '1', 0.000695009, 0.00331266, 0, 12.2, 12.2, 12.2, 0, 0, 0, 0, 1, 1, 0, 1, 1, 0, 1, 0, 1, 0, 1
452, 76, '1', 0.002012, 0.019322, 0.006237, 330, 330, 330, 0, 0, 0, 0, 1, 1, 0, 1, 1, 0, 1, 0, 1, 0, 1
79, 78, '1', 0.000622277, 0.00327852, 0, 0.5, 0.5, 0.5, 0, 0, 0, 0, 1, 1, 0, 1, 1, 0, 1, 0, 1, 0, 1
78, 328, '1', 0.00543197, 0.0498288, 0.0176582, 260, 260, 260, 0, 0, 0, 0, 1, 1, 0, 1, 1, 0, 1, 0, 1, 0, 1
78, 387, '1', 0.00235449, 0.022609, 0.00729845, 260, 260, 260, 0, 0, 0, 0, 1, 1, 0, 1, 1, 0, 1, 0, 1, 0, 1
407, 80, '1', 0.000818, 0.010825, 0.228132, 1050, 1050, 1050, 0, 0, 0, 0, 1, 1, 0, 1, 1, 0, 1, 0, 1, 0, 1
149, 81, '1', 0.00287908, 0.0264105, 0.00935925, 145, 145, 145, 0, 0, 0, 0, 1, 1, 0, 1, 1, 0, 1, 0, 1, 0, 1
84, 83, '1', 0.000637555, 0.00365521, 0, 105.4, 105.4, 105.4, 0, 0, 0, 0, 1, 1, 0, 1, 1, 0, 1, 0, 1, 0, 1
83, 342, '1', 0.00411562, 0.0395203, 0.0127576, 145, 145, 145, 0, 0, 0, 0, 1, 1, 0, 1, 1, 0, 1, 0, 1, 0, 1
86, 85, '1', 0.00065231, 0.00390108, 0, 30, 30, 30, 0, 0, 0, 0, 1, 1, 0, 1, 1, 0, 1, 0, 1, 0, 1
272, 85, '1', 0.00441169, 0.0404695, 0.0143414, 270, 270, 270, 0, 0, 0, 0, 1, 1, 0, 1, 1, 0, 1, 0, 1, 0, 1
88, 87, '1', 0.000622526, 0.00356856, 0, 7.7, 7.7, 7.7, 0, 0, 0, 0, 1, 1, 0, 1, 1, 0, 1, 0, 1, 0, 1
87, 141, '1', 0.001846, 0.017727, 0.005723, 520, 520, 520, 0, 0, 0, 0, 1, 1, 0, 1, 1, 0, 1, 0, 1, 0, 1
87, 143, '1', 0.00382, 0.035043, 0.012419, 515, 515, 515, 0, 0, 0, 0, 1, 1, 0, 1, 1, 0, 1, 0, 1, 0, 1
423, 87, '1', 0.00183568, 0.0176272, 0.00569025, 270, 270, 270, 0, 0, 0, 0, 1, 1, 0, 1, 1, 0, 1, 0, 1, 0, 1
90, 89, '1', 0.000554087, 0.00386402, 0, 10.5, 10.5, 10.5, 0, 0, 0, 0, 1, 1, 0, 1, 1, 0, 1, 0, 1, 0, 1
89, 187, '1', 0.00211627, 0.0203216, 0.00656004, 145, 145, 145, 0, 0, 0, 0, 1, 1, 0, 1, 1, 0, 1, 0, 1, 0, 1
89, 457, '1', 0.009012, 0.082666, 0.029295, 145, 145, 145, 0, 0, 0, 0, 1, 1, 0, 1, 1, 0, 1, 0, 1, 0, 1
92, 91, '1', 0.0005717, 0.00361724, 0, 104.2, 104.2, 104.2, 0, 0, 0, 0, 1, 1, 0, 1, 1, 0, 1, 0, 1, 0, 1
91, 133, '1', 0.00504049, 0.0484015, 0.0156245, 270, 270, 270, 0, 0, 0, 0, 1, 1, 0, 1, 1, 0, 1, 0, 1, 0, 1
94, 93, '1', 0.000536047, 0.00328149, 0, 8.2, 8.2, 8.2, 0, 0, 0, 0, 1, 1, 0, 1, 1, 0, 1, 0, 1, 0, 1
269, 93, '1', 0.00392064, 0.035965, 0.0127451, 270, 270, 270, 0, 0, 0, 0, 1, 1, 0, 1, 1, 0, 1, 0, 1, 0, 1
336, 93, '1', 0.00579454, 0.0531548, 0.0188368, 270, 270, 270, 0, 0, 0, 0, 1, 1, 0, 1, 1, 0, 1, 0, 1, 0, 1
96, 95, '1', 0.00056273, 0.00325345, 0, 56.2, 56.2, 56.2, 0, 0, 0, 0, 1, 1, 0, 1, 1, 0, 1, 0, 1, 0, 1
95, 170, '1', 0.0021107, 0.020268, 0.00654275, 145, 145, 145, 0, 0, 0, 0, 1, 1, 0, 1, 1, 0, 1, 0, 1, 0, 1
95, 369, '1', 0.00409437, 0.0393163, 0.0126918, 270, 270, 270, 0, 0, 0, 0, 1, 1, 0, 1, 1, 0, 1, 0, 1, 0, 1
98, 97, '1', 0.000568811, 0.00398603, 0, 66.4, 66.4, 66.4, 0, 0, 0, 0, 1, 1, 0, 1, 1, 0, 1, 0, 1, 0, 1
181, 97, '1', 0.00299237, 0.0287344, 0.00927578, 145, 145, 145, 0, 0, 0, 0, 1, 1, 0, 1, 1, 0, 1, 0, 1, 0, 1
358, 97, '1', 0.00267648, 0.024552, 0.00870064, 270, 270, 270, 0, 0, 0, 0, 1, 1, 0, 1, 1, 0, 1, 0, 1, 0, 1
100, 99, '1', 0.000644448, 0.00362034, 0, 22.7, 22.7, 22.7, 0, 0, 0, 0, 1, 1, 0, 1, 1, 0, 1, 0, 1, 0, 1
101, 99, '1', 0.000699472, 0.00329389, 0, 1.4, 1.4, 1.4, 0, 0, 0, 0, 1, 1, 0, 1, 1, 0, 1, 0, 1, 0, 1
99, 465, '1', 0.0026889, 0.0258203, 0.00833507, 145, 145, 145, 0, 0, 0, 0, 1, 1, 0, 1, 1, 0, 1, 0, 1, 0, 1
472, 99, '1', 0.00331831, 0.0318642, 0.0102861, 145, 145, 145, 0, 0, 0, 0, 1, 1, 0, 1, 1, 0, 1, 0, 1, 0, 1
103, 102, '1', 0.000613984, 0.00387398, 0, 64.6, 64.6, 64.6, 0, 0, 0, 0, 1, 1, 0, 1, 1, 0, 1, 0, 1, 0, 1
102, 308, '1', 0.00564993, 0.0542537, 0.0175137, 270, 270, 270, 0, 0, 0, 0, 1, 1, 0, 1, 1, 0, 1, 0, 1, 0, 1
419, 102, '1', 0.00363843, 0.0349382, 0.0112784, 270, 270, 270, 0, 0, 0, 0, 1, 1, 0, 1, 1, 0, 1, 0, 1, 0, 1
105, 104, '1', 0.000672543, 0.00375095, 0, 144.2, 144.2, 144.2, 0, 0, 0, 0, 1, 1, 0, 1, 1, 0, 1, 0, 1, 0, 1
104, 191, '1', 0.00517651, 0.0474854, 0.0168277, 145, 145, 145, 0, 0, 0, 0, 1, 1, 0, 1, 1, 0, 1, 0, 1, 0, 1
107, 106, '1', 0.000574563, 0.00320633, 0, 24.5, 24.5, 24.5, 0, 0, 0, 0, 1, 1, 0, 1, 1, 0, 1, 0, 1, 0, 1
106, 191, '1', 0.00446795, 0.0429036, 0.0138498, 270, 270, 270, 0, 0, 0, 0, 1, 1, 0, 1, 1, 0, 1, 0, 1, 0, 1
236, 106, '1', 0.00311532, 0.029915, 0.00965689, 270, 270, 270, 0, 0, 0, 0, 1, 1, 0, 1, 1, 0, 1, 0, 1, 0, 1
109, 108, '1', 0.000658007, 0.00300957, 0, 62.9, 62.9, 62.9, 0, 0, 0, 0, 1, 1, 0, 1, 1, 0, 1, 0, 1, 0, 1
108, 472, '1', 0.00203292, 0.0195212, 0.00630167, 185, 185, 185, 0, 0, 0, 0, 1, 1, 0, 1, 1, 0, 1, 0, 1, 0, 1
108, 495, '1', 0.00361075, 0.0346724, 0.0111926, 220, 220, 220, 0, 0, 0, 0, 1, 1, 0, 1, 1, 0, 1, 0, 1, 0, 1
111, 110, '1', 0.000526841, 0.00370826, 0, 87, 87, 87, 0, 0, 0, 0, 1, 1, 0, 1, 1, 0, 1, 0, 1, 0, 1
274, 110, '1', 0.00312607, 0.0300181, 0.0096902, 220, 220, 220, 0, 0, 0, 0, 1, 1, 0, 1, 1, 0, 1, 0, 1, 0, 1
110, 316, '1', 0.00343915, 0.0330245, 0.0106607, 145, 145, 145, 0, 0, 0, 0, 1, 1, 0, 1, 1, 0, 1, 0, 1, 0, 1
113, 112, '1', 0.000644371, 0.00311935, 0, 73, 73, 73, 0, 0, 0, 0, 1, 1, 0, 1, 1, 0, 1, 0, 1, 0, 1
193, 112, '1', 0.00286733, 0.0275336, 0.00888817, 175, 175, 175, 0, 0, 0, 0, 1, 1, 0, 1, 1, 0, 1, 0, 1, 0, 1
112, 236, '1', 0.00632924, 0.0607768, 0.0196194, 300, 300, 300, 0, 0, 0, 0, 1, 1, 0, 1, 1, 0, 1, 0, 1, 0, 1
112, 283, '1', 0.00861853, 0.0827597, 0.0267158, 145, 145, 145, 0, 0, 0, 0, 1, 1, 0, 1, 1, 0, 1, 0, 1, 0, 1
372, 112, '1', 0.0020065, 0.0192675, 0.00621976, 285, 285, 285, 0, 0, 0, 0, 1, 1, 0, 1, 1, 0, 1, 0, 1, 0, 1
112, 499, '1', 0.0055765, 0.0511546, 0.018128, 220, 220, 220, 0, 0, 0, 0, 1, 1, 0, 1, 1, 0, 1, 0, 1, 0, 1
115, 114, '1', 0.000506233, 0.00336036, 0, 6.7, 6.7, 6.7, 0, 0, 0, 0, 1, 1, 0, 1, 1, 0, 1, 0, 1, 0, 1
116, 114, '1', 0.000505013, 0.00341051, 0, 5.3, 5.3, 5.3, 0, 0, 0, 0, 1, 1, 0, 1, 1, 0, 1, 0, 1, 0, 1
114, 191, '1', 0.00555724, 0.0533636, 0.0172264, 145, 145, 145, 0, 0, 0, 0, 1, 1, 0, 1, 1, 0, 1, 0, 1, 0, 1
114, 312, '1', 0.0066089, 0.0634622, 0.0204863, 145, 145, 145, 0, 0, 0, 0, 1, 1, 0, 1, 1, 0, 1, 0, 1, 0, 1
118, 117, '1', 0.000633836, 0.00385096, 0, 12.8, 12.8, 12.8, 0, 0, 0, 0, 1, 1, 0, 1, 1, 0, 1, 0, 1, 0, 1
117, 426, '1', 0.00317216, 0.029099, 0.010312, 145, 145, 145, 0, 0, 0, 0, 1, 1, 0, 1, 1, 0, 1, 0, 1, 0, 1
490, 117, '1', 0.00299873, 0.0275081, 0.0097482, 300, 300, 300, 0, 0, 0, 0, 1, 1, 0, 1, 1, 0, 1, 0, 1, 0, 1
120, 119, '1', 0.000556147, 0.00305904, 0, 46.6, 46.6, 46.6, 0, 0, 0, 0, 1, 1, 0, 1, 1, 0, 1, 0, 1, 0, 1
119, 129, '1', 0.00234965, 0.0215539, 0.0076382, 270, 270, 270, 0, 0, 0, 0, 1, 1, 0, 1, 1, 0, 1, 0, 1, 0, 1
253, 119, '1', 0.00149439, 0.0143499, 0.00463231, 250, 250, 250, 0, 0, 0, 0, 1, 1, 0, 1, 1, 0, 1, 0, 1, 0, 1
122, 121, '1', 0.000554934, 0.00384643, 0, 70.4, 70.4, 70.4, 0, 0, 0, 0, 1, 1, 0, 1, 1, 0, 1, 0, 1, 0, 1
121, 276, '1', 0.00254757, 0.0244631, 0.00789698, 145, 145, 145, 0, 0, 0, 0, 1, 1, 0, 1, 1, 0, 1, 0, 1, 0, 1
121, 287, '1', 0.00708754, 0.0680583, 0.02197, 145, 145, 145, 0, 0, 0, 0, 1, 1, 0, 1, 1, 0, 1, 0, 1, 0, 1
165, 123, '1', 0.000216027, 0.00313758, 0.0547534, 900, 900, 900, 0, 0, 0, 0, 1, 1, 0, 1, 1, 0, 1, 0, 1, 0, 1
124, 260, '1', 0.00203952, 0.0187091, 0.00663005, 220, 220, 220, 0, 0, 0, 0, 1, 1, 0, 1, 1, 0, 1, 0, 1, 0, 1
124, 369, '1', 0.00769284, 0.0705683, 0.0250077, 225, 225, 225, 0, 0, 0, 0, 1, 1, 0, 1, 1, 0, 1, 0, 1, 0, 1
130, 129, '1', 0.000698008, 0.00322102, 0, 166, 166, 166, 0, 0, 0, 0, 1, 1, 0, 1, 1, 0, 1, 0, 1, 0, 1
304, 129, '1', 0.00306297, 0.0294122, 0.0094946, 195, 195, 195, 0, 0, 0, 0, 1, 1, 0, 1, 1, 0, 1, 0, 1, 0, 1
324, 129, '1', 0.00187843, 0.0172313, 0.00610636, 195, 195, 195, 0, 0, 0, 0, 1, 1, 0, 1, 1, 0, 1, 0, 1, 0, 1
132, 131, '1', 0.000673258, 0.00361521, 0, 41.6, 41.6, 41.6, 0, 0, 0, 0, 1, 1, 0, 1, 1, 0, 1, 0, 1, 0, 1
131, 333, '1', 0.00222709, 0.0213857, 0.00690355, 300, 300, 300, 0, 0, 0, 0, 1, 1, 0, 1, 1, 0, 1, 0, 1, 0, 1
134, 133, '1', 0.000515032, 0.00308264, 0, 66, 66, 66, 0, 0, 0, 0, 1, 1, 0, 1, 1, 0, 1, 0, 1, 0, 1
133, 226, '1', 0.00644015, 0.0590771, 0.0209355, 145, 145, 145, 0, 0, 0, 0, 1, 1, 0, 1, 1, 0, 1, 0, 1, 0, 1
133, 369, '1', 0.00615507, 0.056462, 0.0200088, 300, 300, 300, 0, 0, 0, 0, 1, 1, 0, 1, 1, 0, 1, 0, 1, 0, 1
473, 133, '1', 0.00475466, 0.0456568, 0.0147385, 145, 145, 145, 0, 0, 0, 0, 1, 1, 0, 1, 1, 0, 1, 0, 1, 0, 1
136, 135, '1', 0.000548777, 0.0036604, 0, 45.6, 45.6, 45.6, 0, 0, 0, 0, 1, 1, 0, 1, 1, 0, 1, 0, 1, 0, 1
135, 287, '1', 0.00756782, 0.0694215, 0.0246013, 300, 300, 300, 0, 0, 0, 0, 1, 1, 0, 1, 1, 0, 1, 0, 1, 0, 1
135, 457, '1', 0.00686487, 0.0629732, 0.0223162, 220, 220, 220, 0, 0, 0, 0, 1, 1, 0, 1, 1, 0, 1, 0, 1, 0, 1
138, 137, '1', 0.000555555, 0.00378798, 0, 122.9, 122.9, 122.9, 0, 0, 0, 0, 1, 1, 0, 1, 1, 0, 1, 0, 1, 0, 1
137, 214, '1', 0.00312011, 0.029961, 0.00967175, 200, 200, 200, 0, 0, 0, 0, 1, 1, 0, 1, 1, 0, 1, 0, 1, 0, 1
137, 426, '1', 0.00299838, 0.028792, 0.00929439, 145, 145, 145, 0, 0, 0, 0, 1, 1, 0, 1, 1, 0, 1, 0, 1, 0, 1
137, 426, '2', 0.003, 0.02879, 0.00929, 320.3, 320.3, 320.3, 0, 0, 0, 0, 1, 1, 0, 1, 1, 0, 1, 0, 1, 0, 1
140, 139, '1', 0.000600197, 0.00318213, 0, 0.4, 0.4, 0.4, 0, 0, 0, 0, 1, 1, 0, 1, 1, 0, 1, 0, 1, 0, 1
139, 376, '1', 0.00267603, 0.0256967, 0.00829519, 185, 185, 185, 0, 0, 0, 0, 1, 1, 0, 1, 1, 0, 1, 0, 1, 0, 1
429, 139, '1', 0.00146772, 0.0140938, 0.00454964, 185, 185, 185, 0, 0, 0, 0, 1, 1, 0, 1, 1, 0, 1, 0, 1, 0, 1
142, 141, '1', 0.000686707, 0.00341671, 0, 209.8, 209.8, 209.8, 0, 0, 0, 0, 1, 1, 0, 1, 1, 0, 1, 0, 1, 0, 1
300, 141, '1', 0.00267026, 0.024495, 0.00868044, 430, 430, 430, 0, 0, 0, 0, 1, 1, 0, 1, 1, 0, 1, 0, 1, 0, 1
...
0 / END OF BRANCH DATA, BEGIN TRANSFORMER DATA
8, 7, 0, '1', 1, 1, 1, 0, 0, 2, ' ', 1, 1, 1, 0, 1, 0, 1, 0, 1, ' '
0.000355062, 0.0129, 567
1, 138, 0, 567, 567, 567, 0, 0, 1.5, .51, 1.5, .51, 159, 0, 0, 0, 0
1, 345
9, 7, 0, '1', 1, 1, 1, 0, 0, 2, ' ', 1, 1, 1, 0, 1, 0, 1, 0, 1, ' '
0.00012, 0.01362, 900
1, 13.8, 0, 900, 900, 900, 0, 0, 1.5, .51, 1.5, .51, 159, 0, 0, 0, 0
1, 345
9, 7, 0, '2', 1, 1, 1, 0, 0, 2, ' ', 1, 1, 1, 0, 1, 0, 1, 0, 1, ' '
0.00012, 0.01362, 900
1, 13.8, 0, 900, 900, 900, 0, 0, 1.5, .51, 1.5, .51, 159, 0, 0, 0, 0
1, 345
15, 14, 0, '1', 1, 1, 1, 0, 0, 2, ' ', 1, 1, 1, 0, 1, 0, 1, 0, 1, ' '
0.000207947, 0.01122, 682
1, 138, 0, 682, 682, 682, 0, 0, 1.5, .51, 1.5, .51, 159, 0, 0, 0, 0
1, 345
16, 14, 0, '1', 1, 1, 1, 0, 0, 2, ' ', 1, 1, 1, 0, 1, 0, 1, 0, 1, ' '
0.000325948, 0.01202, 596
1, 13.8, 0, 596, 596, 596, 0, 0, 1.5, .51, 1.5, .51, 159, 0, 0, 0, 0
1, 345
17, 14, 0, '1', 1, 1, 1, 0, 0, 2, ' ', 1, 1, 1, 0, 1, 0, 1, 0, 1, ' '
0.000279, 0.01438, 930
1, 13.8, 0, 930, 930, 930, 0, 0, 1.5, .51, 1.5, .51, 159, 0, 0, 0, 0
1, 345
17, 14, 0, '2', 1, 1, 1, 0, 0, 2, ' ', 1, 1, 1, 0, 1, 0, 1, 0, 1, ' '
0.000354, 0.01438, 930
1, 13.8, 0, 930, 930, 930, 0, 0, 1.5, .51, 1.5, .51, 159, 0, 0, 0, 0
1, 345
18, 14, 0, '1', 1, 1, 1, 0, 0, 2, ' ', 1, 1, 1, 0, 1, 0, 1, 0, 1, ' '
0.00141719, 0.05115, 340
1, 13.8, 0, 340, 340, 340, 0, 0, 1.5, .51, 1.5, .51, 159, 0, 0, 0, 0
1, 345
24, 23, 0, '1', 1, 1, 1, 0, 0, 2, ' ', 1, 1, 1, 0, 1, 0, 1, 0, 1, ' '
0.00033, 0.01764, 626
1, 138, 0, 626, 626, 626, 0, 0, 1.5, .51, 1.5, .51, 159, 0, 0, 0, 0
1, 345
40, 39, 0, '1', 1, 1, 1, 0, 0, 2, ' ', 1, 1, 1, 0, 1, 0, 1, 0, 1, ' '
0.0007, 0.02531, 428
1, 138, 0, 428, 428, 428, 0, 0, 1.5, .51, 1.5, .51, 159, 0, 0, 0, 0
1, 345
49, 48, 0, '1', 1, 1, 1, 0, 0, 2, ' ', 1, 1, 1, 0, 1, 0, 1, 0, 1, ' '
0.01331, 0.27853, 57
1, 13.8, 0, 57, 57, 57, 0, 0, 1.5, .51, 1.5, .51, 159, 0, 0, 0, 0
1, 138
50, 48, 0, '1', 1, 1, 1, 0, 0, 2, ' ', 1, 1, 1, 0, 1, 0, 1, 0, 1, ' '
0.00715, 0.16356, 100
1, 13.8, 0, 100, 100, 100, 0, 0, 1.5, .51, 1.5, .51, 159, 0, 0, 0, 0
1, 138
58, 57, 0, '1', 1, 1, 1, 0, 0, 2, ' ', 1, 1, 1, 0, 1, 0, 1, 0, 1, ' '
0.00012, 0.01762, 675
1, 138, 0, 675, 675, 675, 0, 0, 1.5, .51, 1.5, .51, 159, 0, 0, 0, 0
1, 345
58, 57, 0, '2', 1, 1, 1, 0, 0, 2, ' ', 1, 1, 1, 0, 1, 0, 1, 0, 1, ' '
0.00012, 0.01762, 675
1, 138, 0, 675, 675, 675, 0, 0, 1.5, .51, 1.5, .51, 159, 0, 0, 0, 0
1, 345
63, 62, 0, '1', 1, 1, 1, 0, 0, 2, ' ', 1, 1, 1, 0, 1, 0, 1, 0, 1, ' '
0.0032, 0.16353, 70
1, 13.8, 0, 70, 70, 70, 0, 0, 1.5, .51, 1.5, .51, 159, 0, 0, 0, 0
1, 138
66, 65, 0, '1', 1, 1, 1, 0, 0, 2, ' ', 1, 1, 1, 0, 1, 0, 1, 0, 1, ' '
0.000807929, 0.03088, 405
1, 138, 0, 405, 405, 405, 0, 0, 1.5, .51, 1.5, .51, 159, 0, 0, 0, 0
1, 345
71, 70, 0, '1', 1, 1, 1, 0, 0, 2, ' ', 1, 1, 1, 0, 1, 0, 1, 0, 1, ' '
0.00103, 0.04472, 133
1, 13.8, 0, 133, 133, 133, 0, 0, 1.5, .51, 1.5, .51, 159, 0, 0, 0, 0
1, 138
72, 70, 0, '1', 1, 1, 1, 0, 0, 2, ' ', 1, 1, 1, 0, 1, 0, 1, 0, 1, ' '
0.00292, 0.14481, 60
1, 13.8, 0, 60, 60, 60, 0, 0, 1.5, .51, 1.5, .51, 159, 0, 0, 0, 0
1, 138
73, 70, 0, '1', 1, 1, 1, 0, 0, 2, ' ', 1, 1, 1, 0, 1, 0, 1, 0, 1, ' '
0.0126963, 0.27303, 49
1, 13.8, 0, 49, 49, 49, 0, 0, 1.5, .51, 1.5, .51, 159, 0, 0, 0, 0
1, 138
...